
 Fire Dynamics Simulator

 Current Date     : June 22, 2020  11:41:05
 Revision         : FDS6.7.4-531-g013be8a-master
 Revision Date    : Mon Jun 1 22:12:40 2020 -0400
 Compiler         : Gnu gfortran 9.2.0
 Compilation Date : Jun 02, 2020  17:39:49

 MPI Enabled;    Number of MPI Processes:      32
 OpenMP Enabled; Number of OpenMP Threads:      4

 MPI version: 3.1
 MPI library version: Open MPI v3.1.2, package: Open MPI leobardovalera@tellico-master0 Distribution, ident: 3.1.2, repo rev: v3.1.2, Aug 22, 2018

 Job TITLE        : Simulation of Chimney Tops fire
 Job ID string    : Chimney_tops_1m


 Grid Dimensions, Mesh     1

   Cells in the X Direction            25
   Cells in the Y Direction            25
   Cells in the Z Direction            63
   Number of Grid Cells             39375


 Physical Dimensions, Mesh     1

   Length (m)                      25.000
   Width  (m)                      25.000
   Height (m)                      62.500
   Initial Time Step (s)            0.100

 Grid Dimensions, Mesh     2

   Cells in the X Direction            25
   Cells in the Y Direction            25
   Cells in the Z Direction            63
   Number of Grid Cells             39375


 Physical Dimensions, Mesh     2

   Length (m)                      25.000
   Width  (m)                      25.000
   Height (m)                      62.500
   Initial Time Step (s)            0.100

 Grid Dimensions, Mesh     3

   Cells in the X Direction            25
   Cells in the Y Direction            25
   Cells in the Z Direction            63
   Number of Grid Cells             39375


 Physical Dimensions, Mesh     3

   Length (m)                      25.000
   Width  (m)                      25.000
   Height (m)                      62.500
   Initial Time Step (s)            0.100

 Grid Dimensions, Mesh     4

   Cells in the X Direction            25
   Cells in the Y Direction            25
   Cells in the Z Direction            63
   Number of Grid Cells             39375


 Physical Dimensions, Mesh     4

   Length (m)                      25.000
   Width  (m)                      25.000
   Height (m)                      62.500
   Initial Time Step (s)            0.100

 Grid Dimensions, Mesh     5

   Cells in the X Direction            25
   Cells in the Y Direction            25
   Cells in the Z Direction            63
   Number of Grid Cells             39375


 Physical Dimensions, Mesh     5

   Length (m)                      25.000
   Width  (m)                      25.000
   Height (m)                      62.500
   Initial Time Step (s)            0.100

 Grid Dimensions, Mesh     6

   Cells in the X Direction            25
   Cells in the Y Direction            25
   Cells in the Z Direction            63
   Number of Grid Cells             39375


 Physical Dimensions, Mesh     6

   Length (m)                      25.000
   Width  (m)                      25.000
   Height (m)                      62.500
   Initial Time Step (s)            0.100

 Grid Dimensions, Mesh     7

   Cells in the X Direction            25
   Cells in the Y Direction            25
   Cells in the Z Direction            63
   Number of Grid Cells             39375


 Physical Dimensions, Mesh     7

   Length (m)                      25.000
   Width  (m)                      25.000
   Height (m)                      62.500
   Initial Time Step (s)            0.100

 Grid Dimensions, Mesh     8

   Cells in the X Direction            25
   Cells in the Y Direction            25
   Cells in the Z Direction            63
   Number of Grid Cells             39375


 Physical Dimensions, Mesh     8

   Length (m)                      25.000
   Width  (m)                      25.000
   Height (m)                      62.500
   Initial Time Step (s)            0.100

 Grid Dimensions, Mesh     9

   Cells in the X Direction            25
   Cells in the Y Direction            25
   Cells in the Z Direction            63
   Number of Grid Cells             39375


 Physical Dimensions, Mesh     9

   Length (m)                      25.000
   Width  (m)                      25.000
   Height (m)                      62.500
   Initial Time Step (s)            0.100

 Grid Dimensions, Mesh    10

   Cells in the X Direction            25
   Cells in the Y Direction            25
   Cells in the Z Direction            63
   Number of Grid Cells             39375


 Physical Dimensions, Mesh    10

   Length (m)                      25.000
   Width  (m)                      25.000
   Height (m)                      62.500
   Initial Time Step (s)            0.100

 Grid Dimensions, Mesh    11

   Cells in the X Direction            25
   Cells in the Y Direction            25
   Cells in the Z Direction            63
   Number of Grid Cells             39375


 Physical Dimensions, Mesh    11

   Length (m)                      25.000
   Width  (m)                      25.000
   Height (m)                      62.500
   Initial Time Step (s)            0.100

 Grid Dimensions, Mesh    12

   Cells in the X Direction            25
   Cells in the Y Direction            25
   Cells in the Z Direction            63
   Number of Grid Cells             39375


 Physical Dimensions, Mesh    12

   Length (m)                      25.000
   Width  (m)                      25.000
   Height (m)                      62.500
   Initial Time Step (s)            0.100

 Grid Dimensions, Mesh    13

   Cells in the X Direction            25
   Cells in the Y Direction            25
   Cells in the Z Direction            63
   Number of Grid Cells             39375


 Physical Dimensions, Mesh    13

   Length (m)                      25.000
   Width  (m)                      25.000
   Height (m)                      62.500
   Initial Time Step (s)            0.100

 Grid Dimensions, Mesh    14

   Cells in the X Direction            25
   Cells in the Y Direction            25
   Cells in the Z Direction            63
   Number of Grid Cells             39375


 Physical Dimensions, Mesh    14

   Length (m)                      25.000
   Width  (m)                      25.000
   Height (m)                      62.500
   Initial Time Step (s)            0.100

 Grid Dimensions, Mesh    15

   Cells in the X Direction            25
   Cells in the Y Direction            25
   Cells in the Z Direction            63
   Number of Grid Cells             39375


 Physical Dimensions, Mesh    15

   Length (m)                      25.000
   Width  (m)                      25.000
   Height (m)                      62.500
   Initial Time Step (s)            0.100

 Grid Dimensions, Mesh    16

   Cells in the X Direction            25
   Cells in the Y Direction            25
   Cells in the Z Direction            63
   Number of Grid Cells             39375


 Physical Dimensions, Mesh    16

   Length (m)                      25.000
   Width  (m)                      25.000
   Height (m)                      62.500
   Initial Time Step (s)            0.100

 Grid Dimensions, Mesh    17

   Cells in the X Direction            25
   Cells in the Y Direction            25
   Cells in the Z Direction            63
   Number of Grid Cells             39375


 Physical Dimensions, Mesh    17

   Length (m)                      25.000
   Width  (m)                      25.000
   Height (m)                      62.500
   Initial Time Step (s)            0.100

 Grid Dimensions, Mesh    18

   Cells in the X Direction            25
   Cells in the Y Direction            25
   Cells in the Z Direction            63
   Number of Grid Cells             39375


 Physical Dimensions, Mesh    18

   Length (m)                      25.000
   Width  (m)                      25.000
   Height (m)                      62.500
   Initial Time Step (s)            0.100

 Grid Dimensions, Mesh    19

   Cells in the X Direction            25
   Cells in the Y Direction            25
   Cells in the Z Direction            63
   Number of Grid Cells             39375


 Physical Dimensions, Mesh    19

   Length (m)                      25.000
   Width  (m)                      25.000
   Height (m)                      62.500
   Initial Time Step (s)            0.100

 Grid Dimensions, Mesh    20

   Cells in the X Direction            25
   Cells in the Y Direction            25
   Cells in the Z Direction            63
   Number of Grid Cells             39375


 Physical Dimensions, Mesh    20

   Length (m)                      25.000
   Width  (m)                      25.000
   Height (m)                      62.500
   Initial Time Step (s)            0.100

 Grid Dimensions, Mesh    21

   Cells in the X Direction            25
   Cells in the Y Direction            25
   Cells in the Z Direction            63
   Number of Grid Cells             39375


 Physical Dimensions, Mesh    21

   Length (m)                      25.000
   Width  (m)                      25.000
   Height (m)                      62.500
   Initial Time Step (s)            0.100

 Grid Dimensions, Mesh    22

   Cells in the X Direction            25
   Cells in the Y Direction            25
   Cells in the Z Direction            63
   Number of Grid Cells             39375


 Physical Dimensions, Mesh    22

   Length (m)                      25.000
   Width  (m)                      25.000
   Height (m)                      62.500
   Initial Time Step (s)            0.100

 Grid Dimensions, Mesh    23

   Cells in the X Direction            25
   Cells in the Y Direction            25
   Cells in the Z Direction            63
   Number of Grid Cells             39375


 Physical Dimensions, Mesh    23

   Length (m)                      25.000
   Width  (m)                      25.000
   Height (m)                      62.500
   Initial Time Step (s)            0.100

 Grid Dimensions, Mesh    24

   Cells in the X Direction            25
   Cells in the Y Direction            25
   Cells in the Z Direction            63
   Number of Grid Cells             39375


 Physical Dimensions, Mesh    24

   Length (m)                      25.000
   Width  (m)                      25.000
   Height (m)                      62.500
   Initial Time Step (s)            0.100

 Grid Dimensions, Mesh    25

   Cells in the X Direction            25
   Cells in the Y Direction            25
   Cells in the Z Direction            63
   Number of Grid Cells             39375


 Physical Dimensions, Mesh    25

   Length (m)                      25.000
   Width  (m)                      25.000
   Height (m)                      62.500
   Initial Time Step (s)            0.100

 Grid Dimensions, Mesh    26

   Cells in the X Direction            25
   Cells in the Y Direction            25
   Cells in the Z Direction            63
   Number of Grid Cells             39375


 Physical Dimensions, Mesh    26

   Length (m)                      25.000
   Width  (m)                      25.000
   Height (m)                      62.500
   Initial Time Step (s)            0.100

 Grid Dimensions, Mesh    27

   Cells in the X Direction            25
   Cells in the Y Direction            25
   Cells in the Z Direction            63
   Number of Grid Cells             39375


 Physical Dimensions, Mesh    27

   Length (m)                      25.000
   Width  (m)                      25.000
   Height (m)                      62.500
   Initial Time Step (s)            0.100

 Grid Dimensions, Mesh    28

   Cells in the X Direction            25
   Cells in the Y Direction            25
   Cells in the Z Direction            63
   Number of Grid Cells             39375


 Physical Dimensions, Mesh    28

   Length (m)                      25.000
   Width  (m)                      25.000
   Height (m)                      62.500
   Initial Time Step (s)            0.100

 Grid Dimensions, Mesh    29

   Cells in the X Direction            25
   Cells in the Y Direction            25
   Cells in the Z Direction            63
   Number of Grid Cells             39375


 Physical Dimensions, Mesh    29

   Length (m)                      25.000
   Width  (m)                      25.000
   Height (m)                      62.500
   Initial Time Step (s)            0.100

 Grid Dimensions, Mesh    30

   Cells in the X Direction            25
   Cells in the Y Direction            25
   Cells in the Z Direction            63
   Number of Grid Cells             39375


 Physical Dimensions, Mesh    30

   Length (m)                      25.000
   Width  (m)                      25.000
   Height (m)                      62.500
   Initial Time Step (s)            0.100

 Grid Dimensions, Mesh    31

   Cells in the X Direction            25
   Cells in the Y Direction            25
   Cells in the Z Direction            63
   Number of Grid Cells             39375


 Physical Dimensions, Mesh    31

   Length (m)                      25.000
   Width  (m)                      25.000
   Height (m)                      62.500
   Initial Time Step (s)            0.100

 Grid Dimensions, Mesh    32

   Cells in the X Direction            25
   Cells in the Y Direction            25
   Cells in the Z Direction            63
   Number of Grid Cells             39375


 Physical Dimensions, Mesh    32

   Length (m)                      25.000
   Width  (m)                      25.000
   Height (m)                      62.500
   Initial Time Step (s)            0.100

Total Number of Grid Cells       1260000


 Miscellaneous Parameters

   Simulation Start Time (s)          0.0
   Simulation End Time (s)           10.0
   LES Calculation
   Eddy Viscosity:           Deardorff Model (C_DEARDORFF = 0.10)
   Near-wall Eddy Viscosity: Smagorinsky with Van Driest damping (C_SMAGORINSKY = 0.20)
   Turbulent Prandtl Number:         0.50
   Turbulent Schmidt Number:         0.50
   Ambient Temperature (C):         30.00


 Mass Fraction Transformation Matrix to Convert Species Mixtures (Columns) to Primitive Species (Rows)

                         AIR       CELLULOS  PRODUCTS  WATER VA
   CELLULOSE             0.000000  1.000000  0.000000  0.000000
   NITROGEN              0.758772  0.000000  0.634221  0.000000
   OXYGEN                0.229877  0.000000  0.000000  0.000000
   CARBON DIOXIDE        0.000589  0.000000  0.264838  0.000000
   CARBON MONOXIDE       0.000000  0.000000  0.000000  0.000000
   WATER VAPOR           0.010763  0.000000  0.100120  1.000000
   SOOT                  0.000000  0.000000  0.000821  0.000000
   HYDROGEN              0.000000  0.000000  0.000000  0.000000


 Primitive Species Information

   CELLULOSE
   Gas Species
   Molecular Weight (g/mol)           162.14060
   Ambient Density (kg/m^3)            6.518
   Enthalpy of Formation (J/kg)       -6.52E+06

   NITROGEN
   Gas Species
   Molecular Weight (g/mol)            28.01340
   Ambient Density (kg/m^3)            1.126
   Enthalpy of Formation (J/kg)        0.00E+00

   OXYGEN
   Gas Species
   Molecular Weight (g/mol)            31.99880
   Ambient Density (kg/m^3)            1.286
   Enthalpy of Formation (J/kg)        0.00E+00

   CARBON DIOXIDE
   Gas Species
   Molecular Weight (g/mol)            44.00950
   Ambient Density (kg/m^3)            1.769
   Enthalpy of Formation (J/kg)       -8.94E+06

   CARBON MONOXIDE
   Gas Species
   Molecular Weight (g/mol)            28.01010
   Ambient Density (kg/m^3)            1.126
   Enthalpy of Formation (J/kg)       -3.95E+06

   WATER VAPOR
   Gas Species
   Molecular Weight (g/mol)            18.01528
   Ambient Density (kg/m^3)            0.724
   Enthalpy of Formation (J/kg)       -1.34E+07

   SOOT
   Gas Species
   Molecular Weight (g/mol)            10.91042
   Ambient Density (kg/m^3)            0.439
   Enthalpy of Formation (J/kg)        0.00E+00

   HYDROGEN
   Gas Species
   Molecular Weight (g/mol)             2.01588
   Ambient Density (kg/m^3)            0.081
   Enthalpy of Formation (J/kg)        0.00E+00


 Tracked (Lumped) Species Information

   AIR
   Molecular Weight (g/mol)            28.66911
   Ambient Density (kg/m^3)            1.152
   Initial Mass Fraction               1.000
   Enthalpy of Formation (J/kg)     -1.50E+05

   Sub Species                    Mass Fraction     Mole Fraction
   NITROGEN                       7.587716E-01      7.765320E-01
   OXYGEN                         2.298769E-01      2.059567E-01
   CARBON DIOXIDE                 5.885961E-04      3.834291E-04
   WATER VAPOR                    1.076292E-02      1.712787E-02
 
     Viscosity (kg/m/s) Ambient,  303 K:  1.84E-05
                                  500 K:  2.61E-05
                                 1000 K:  4.12E-05
                                 1500 K:  5.37E-05
   Therm. Cond. (W/m/K) Ambient,  303 K:  2.62E-02
                                  500 K:  3.81E-02
                                 1000 K:  6.69E-02
                                 1500 K:  9.28E-02
        Enthalpy (J/kg) Ambient,  303 K: -1.45E+05
                                  500 K:  5.83E+04
                                 1000 K:  6.11E+05
                                 1500 K:  1.21E+06
    Spec. Heat (J/kg/K) Ambient,  303 K:  1.02E+03
                                  500 K:  1.05E+03
                                 1000 K:  1.16E+03
                                 1500 K:  1.24E+03
   Diff. Coeff. (m^2/s) Ambient,  303 K:  2.11E-05
                                  500 K:  4.97E-05
                                 1000 K:  1.58E-04
                                 1500 K:  3.10E-04

   CELLULOSE
   Molecular Weight (g/mol)           162.14060
   Ambient Density (kg/m^3)            6.518
   Initial Mass Fraction               0.000
   Enthalpy of Formation (J/kg)     -6.52E+06

   Sub Species                    Mass Fraction     Mole Fraction
   CELLULOSE                      1.000000E+00      1.000000E+00
 
     Viscosity (kg/m/s) Ambient,  303 K:  4.29E-05
                                  500 K:  6.04E-05
                                 1000 K:  9.50E-05
                                 1500 K:  1.24E-04
   Therm. Cond. (W/m/K) Ambient,  303 K:  1.08E-02
                                  500 K:  1.53E-02
                                 1000 K:  2.40E-02
                                 1500 K:  3.12E-02
        Enthalpy (J/kg) Ambient,  303 K: -6.52E+06
                                  500 K: -6.48E+06
                                 1000 K: -6.39E+06
                                 1500 K: -6.30E+06
    Spec. Heat (J/kg/K) Ambient,  303 K:  1.79E+02
                                  500 K:  1.79E+02
                                 1000 K:  1.79E+02
                                 1500 K:  1.79E+02
   Diff. Coeff. (m^2/s) Ambient,  303 K:  1.61E-05
                                  500 K:  3.78E-05
                                 1000 K:  1.20E-04
                                 1500 K:  2.35E-04

   PRODUCTS
   Molecular Weight (g/mol)            29.16269
   Ambient Density (kg/m^3)            1.172
   Initial Mass Fraction               0.000
   Enthalpy of Formation (J/kg)     -3.71E+06

   Sub Species                    Mass Fraction     Mole Fraction
   NITROGEN                       6.342208E-01      6.602405E-01
   CARBON DIOXIDE                 2.648385E-01      1.754940E-01
   CARBON MONOXIDE                0.000000E+00      0.000000E+00
   WATER VAPOR                    1.001200E-01      1.620718E-01
   SOOT                           8.207396E-04      2.193771E-03
 
     Viscosity (kg/m/s) Ambient,  303 K:  1.64E-05
                                  500 K:  2.38E-05
                                 1000 K:  3.89E-05
                                 1500 K:  5.14E-05
   Therm. Cond. (W/m/K) Ambient,  303 K:  2.34E-02
                                  500 K:  3.58E-02
                                 1000 K:  6.70E-02
                                 1500 K:  9.62E-02
        Enthalpy (J/kg) Ambient,  303 K: -3.71E+06
                                  500 K: -3.49E+06
                                 1000 K: -2.88E+06
                                 1500 K: -2.20E+06
    Spec. Heat (J/kg/K) Ambient,  303 K:  1.07E+03
                                  500 K:  1.14E+03
                                 1000 K:  1.30E+03
                                 1500 K:  1.40E+03
   Diff. Coeff. (m^2/s) Ambient,  303 K:  2.04E-05
                                  500 K:  4.89E-05
                                 1000 K:  1.58E-04
                                 1500 K:  3.11E-04

   WATER VAPOR
   Molecular Weight (g/mol)            18.01528
   Ambient Density (kg/m^3)            0.724
   Initial Mass Fraction               0.000
   Enthalpy of Formation (J/kg)     -1.34E+07

   Sub Species                    Mass Fraction     Mole Fraction
   WATER VAPOR                    1.000000E+00      1.000000E+00
 
     Viscosity (kg/m/s) Ambient,  303 K:  1.09E-05
                                  500 K:  1.77E-05
                                 1000 K:  3.58E-05
                                 1500 K:  5.21E-05
   Therm. Cond. (W/m/K) Ambient,  303 K:  2.02E-02
                                  500 K:  3.46E-02
                                 1000 K:  8.21E-02
                                 1500 K:  1.37E-01
        Enthalpy (J/kg) Ambient,  303 K: -1.34E+07
                                  500 K: -1.30E+07
                                 1000 K: -1.20E+07
                                 1500 K: -1.07E+07
    Spec. Heat (J/kg/K) Ambient,  303 K:  1.87E+03
                                  500 K:  1.96E+03
                                 1000 K:  2.29E+03
                                 1500 K:  2.63E+03
   Diff. Coeff. (m^2/s) Ambient,  303 K:  2.24E-05
                                  500 K:  5.78E-05
                                 1000 K:  1.98E-04
                                 1500 K:  3.95E-04


 Gas Phase Reaction Information

   Fuel                                           Heat of Combustion (kJ/kg)
   CELLULOSE                                                      15334.1860

   Stoichiometry

   Primitive Species Stoich. Coeff.
   Species ID                                                          Molar
   CELLULOSE                                                       -1.000000
   OXYGEN                                                          -5.931268
   CARBON DIOXIDE                                                   5.933125
   WATER VAPOR                                                      4.996285
   SOOT                                                             0.074305

   Tracked (Lumped) Species Stoich. Coeff.
   Species ID                                             Molar         Mass
   AIR                                               -28.798618    -5.092066
   CELLULOSE                                          -1.000000    -1.000000
   PRODUCTS                                           33.871066     6.092066

   Reaction Kinetics

   Arrhenius Parameters
   Pre-exponential:    Infinite
   Activation Energy:  N/A

   ODE Solver:  EXPLICIT EULER
   Extinction Model:  EXTINCTION 2
   Auto-Ignition Temperature (K):       0.0
   Critical Flame Temperature (K):   1700.2


 Material Information

   1 GENERIC VEGETATION                                          
     Emissivity                      0.900
     Density (kg/m3)                 500.0
     Specific Heat (kJ/kg/K)      1.50E+00
     Conductivity (W/m/K)           0.1000
     Reaction  1
        Residue: CHAR, Yield:  0.200
        Gaseous Yields:
        AIR                                                         :     0.00
        CELLULOSE                                                   :     0.80
        PRODUCTS                                                    :     0.00
        WATER VAPOR                                                 :     0.00
        A (1/s)    :  7.46E+27
        E (J/mol):  2.70E+05
        H_R (kJ/kg):  4.18E+02
        N_S        :     1.00

   2 MOISTURE                                                    
     Emissivity                      0.900
     Density (kg/m3)                1000.0
     Specific Heat (kJ/kg/K)      4.18E+00
     Conductivity (W/m/K)           0.1000
     Reaction  1
        Gaseous Yields:
        AIR                                                         :     0.00
        CELLULOSE                                                   :     0.00
        PRODUCTS                                                    :     0.00
        WATER VAPOR                                                 :     1.00
        A (1/s)    :  5.75E+86
        E (J/mol):  6.29E+05
        H_R (kJ/kg):  2.50E+03
        N_S        :     1.00

   3 CHAR                                                        
     Emissivity                      0.900
     Density (kg/m3)                 100.0
     Specific Heat (kJ/kg/K)      1.00E+00
     Conductivity (W/m/K)           0.1000

   4 DIRT                                                        
     Emissivity                      0.900
     Density (kg/m3)                1300.0
     Specific Heat (kJ/kg/K)      2.00E+00
     Conductivity (W/m/K)           0.2500


 Surface Conditions

   0 INERT (DEFAULT)

   1 FIRE
     HRR Per Unit Area (kW/m2)       1500.0
     CELLULOSE Mass Flux (kg/s/m2)   9.78E-02

   2 grass
     Material List
          1  GENERIC VEGETATION
          2  MOISTURE
          3  CHAR
     Layer  1
        Thickness   (m):  0.00020
        Density (kg/m3):   516.26
        GENERIC VEGETATION, Mass fraction:    0.94
        MOISTURE, Mass fraction:    0.06
     Total surface density     0.052 kg/m2
     Solid Phase Node, Layer, Coordinates(m):
                    0      1       0.0000000
                    1      1       0.0001000
                    2      1       0.0002000
     Assumed cylindrical symmetry
     Convection length scale (m)  4.00E-04

   3 needles
     Material List
          1  GENERIC VEGETATION
          2  MOISTURE
          3  CHAR
     Layer  1
        Thickness   (m):  0.02000
        Density (kg/m3):   512.82
        GENERIC VEGETATION, Mass fraction:    0.95
        MOISTURE, Mass fraction:    0.05
     Total surface density     5.128 kg/m2
     Solid Phase Node, Layer, Coordinates(m):
                    0      1       0.0000000
                    1      1       0.0001053
                    2      1       0.0003158
                    3      1       0.0007368
                    4      1       0.0015789
                    5      1       0.0032632
                    6      1       0.0066316
                    7      1       0.0133684
                    8      1       0.0167368
                    9      1       0.0184211
                   10      1       0.0192632
                   11      1       0.0196842
                   12      1       0.0198947
                   13      1       0.0200000
     Assumed cylindrical symmetry
     Convection length scale (m)  4.00E-02

   4 surf1
     Material List
          1  DIRT
     Layer  1
        Thickness   (m):  0.20000
        Density (kg/m3):  1300.00
        DIRT, Mass fraction:    1.00
     Total surface density   260.000 kg/m2
     Reaction products considered from the first  0.50 layers.
     Solid Phase Node, Layer, Coordinates(m):
                    0      1       0.0000000
                    1      1       0.0002611
                    2      1       0.0007833
                    3      1       0.0018277
                    4      1       0.0039164
                    5      1       0.0080940
                    6      1       0.0164491
                    7      1       0.0331593
                    8      1       0.0665796
                    9      1       0.1334204
                   10      1       0.1668407
                   11      1       0.1835509
                   12      1       0.1919060
                   13      1       0.1960836
                   14      1       0.1981723
                   15      1       0.1992167
                   16      1       0.1997389
                   17      1       0.2000000
     Exposed Backing

   5 surf2
     Material List
          1  DIRT
     Layer  1
        Thickness   (m):  0.20000
        Density (kg/m3):  1300.00
        DIRT, Mass fraction:    1.00
     Total surface density   260.000 kg/m2
     Reaction products considered from the first  0.50 layers.
     Solid Phase Node, Layer, Coordinates(m):
                    0      1       0.0000000
                    1      1       0.0002611
                    2      1       0.0007833
                    3      1       0.0018277
                    4      1       0.0039164
                    5      1       0.0080940
                    6      1       0.0164491
                    7      1       0.0331593
                    8      1       0.0665796
                    9      1       0.1334204
                   10      1       0.1668407
                   11      1       0.1835509
                   12      1       0.1919060
                   13      1       0.1960836
                   14      1       0.1981723
                   15      1       0.1992167
                   16      1       0.1997389
                   17      1       0.2000000
     Exposed Backing

   6 OPEN
     Passive Vent to Atmosphere

   7 MIRROR
     Symmetry Plane

   8 INTERPOLATED

   9 PERIODIC

  10 HVAC

  11 MASSLESS TRACER

  12 DROPLET

  13 EVACUATION_OUTFLOW
     Normal Velocity (m/s)         0.000

  14 MASSLESS TARGET

  15 PERIODIC WIND


 Slice File Information, Mesh     1

   Sampling Interval (s)             0.500

   1 Nodes:   0  25   0  25   1   1, Quantity: VELOCITY
   2 Nodes:   0  25   0  25   1   1, Quantity: U-VELOCITY
   3 Nodes:   0  25   0  25   1   1, Quantity: V-VELOCITY
   4 Nodes:   0  25   0  25   1   1, Quantity: W-VELOCITY


 Radiation Model Information

   Number of control angles  104
   Time step increment         3
   Angle increment             5
   Theta band N_phi   Solid angle
     1:        4     0.120
     2:       12     0.114
     3:       16     0.127
     4:       20     0.120
     5:       20     0.120
     6:       16     0.127
     7:       12     0.114
     8:        4     0.120
   Using gray gas absorption.
   Mean beam length  0.100 m


 Initialization time:   24.818 seconds


 Run Time Diagnostics

       Time Step       1   June 22, 2020  11:41:06
       Step Size:    0.100E+00 s, Total Time:       0.10 s
       Pressure Iterations:      6
       Maximum Velocity Error:  0.47E+00 on Mesh   7 at (   2   1  64)
       Maximum Pressure Error:  0.21E-10 on Mesh  11 at (  16  18  63)
       ---------------------------------------------------------------
       Mesh    1
       Max CFL number:  0.45E+00 at (   6,   1,  26)
       Max divergence:  0.62E-13 at (   4,   1,  25)
       Min divergence: -0.20E-07 at (  25,  25,  39)
       Max VN number:   0.93E-01 at (  25,   8,  47)
       No. of Lagrangian Particles:          1386
       Radiation Loss to Boundaries:        -0.006 kW
       Mesh    2
       Max CFL number:  0.45E+00 at (  10,   1,  53)
       Max divergence: -0.57E-12 at (  13,   1,  57)
       Min divergence: -0.25E-06 at (  25,  25,  63)
       Max VN number:   0.93E-01 at (  25,  25,  62)
       No. of Lagrangian Particles:          1254
       Radiation Loss to Boundaries:        -0.008 kW
       Mesh    3
       Max CFL number:  0.34E+00 at (   1,  25,  63)
       Max divergence: -0.60E-09 at (   1,  24,  63)
       Min divergence: -0.13E-08 at (   1,  25,  63)
       Max VN number:   0.30E-03 at (   1,  25,  63)
       No. of Lagrangian Particles:             5
       Mesh    4
       Max CFL number:  0.00E+00 at (   0,   0,   0)
       Max divergence: -0.10E+05 at (   0,   0,   0)
       Min divergence:  0.10E+05 at (   0,   0,   0)
       Max VN number:   0.00E+00 at (   0,   0,   0)
       Mesh    5
       Max CFL number:  0.38E+00 at (  14,   1,  30)
       Max divergence: -0.13E-11 at (   1,  10,  11)
       Min divergence: -0.41E-07 at (  25,   1,  39)
       Max VN number:   0.93E-01 at (  25,  25,  26)
       No. of Lagrangian Particles:          1484
       Radiation Loss to Boundaries:        -0.014 kW
       Mesh    6
       Max CFL number:  0.39E+00 at (  15,   1,  52)
       Max divergence: -0.36E-11 at (  11,  10,  39)
       Min divergence: -0.69E-02 at (  25,  24,  49)
       Max VN number:   0.93E-01 at (  25,   6,  59)
       No. of Lagrangian Particles:          1552
       Radiation Loss to Boundaries:        -0.041 kW
       Mesh    7
       Max CFL number:  0.36E+00 at (   3,  10,  61)
       Max divergence: -0.16E-10 at (   5,  18,  58)
       Min divergence: -0.69E-02 at (   1,  25,  51)
       Max VN number:   0.60E-01 at (   9,  19,  63)
       No. of Lagrangian Particles:           451
       Mesh    8
       Max CFL number:  0.00E+00 at (   0,   0,   0)
       Max divergence: -0.10E+05 at (   0,   0,   0)
       Min divergence:  0.10E+05 at (   0,   0,   0)
       Max VN number:   0.00E+00 at (   0,   0,   0)
       Mesh    9
       Max CFL number:  0.39E+00 at (  24,   9,  24)
       Max divergence: -0.55E-12 at (   1,  14,   5)
       Min divergence: -0.27E-07 at (  25,   1,  28)
       Max VN number:   0.93E-01 at (  25,  23,  24)
       No. of Lagrangian Particles:          1239
       Radiation Loss to Boundaries:        -0.018 kW
       Mesh   10
       Max CFL number:  0.38E+00 at (  14,   1,  40)
       Max divergence: -0.27E-11 at (  10,  12,  33)
       Min divergence: -0.69E-02 at (  25,   1,  49)
       Max VN number:   0.93E-01 at (  25,   2,  49)
       No. of Lagrangian Particles:          1297
       Radiation Loss to Boundaries:        -0.025 kW
       Mesh   11
       Max CFL number:  0.37E+00 at (   3,   1,  55)
       Max divergence: -0.68E-11 at (  10,  12,  57)
       Min divergence: -0.69E-02 at (   1,   1,  50)
       Max VN number:   0.60E-01 at (  14,  14,  63)
       No. of Lagrangian Particles:           832
       Radiation Loss to Boundaries:        -0.003 kW
       Mesh   12
       Max CFL number:  0.00E+00 at (   0,   0,   0)
       Max divergence: -0.10E+05 at (   0,   0,   0)
       Min divergence:  0.10E+05 at (   0,   0,   0)
       Max VN number:   0.00E+00 at (   0,   0,   0)
       Mesh   13
       Max CFL number:  0.41E+00 at (   3,  22,  10)
       Max divergence: -0.32E-12 at (   2,  25,  11)
       Min divergence: -0.45E-07 at (  25,   1,  24)
       Max VN number:   0.93E-01 at (  25,   6,  23)
       No. of Lagrangian Particles:          1241
       Radiation Loss to Boundaries:        -0.010 kW
       Mesh   14
       Max CFL number:  0.39E+00 at (  25,  17,  45)
       Max divergence: -0.63E-12 at (  12,  25,  35)
       Min divergence: -0.45E-07 at (  25,   1,  63)
       Max VN number:   0.93E-01 at (  25,  14,  46)
       No. of Lagrangian Particles:          1284
       Radiation Loss to Boundaries:        -0.011 kW
       Mesh   15
       Max CFL number:  0.40E+00 at (  16,  14,  63)
       Max divergence: -0.17E-11 at (  13,  25,  58)
       Min divergence: -0.21E-07 at (  15,   1,  63)
       Max VN number:   0.60E-01 at (  16,  10,  63)
       No. of Lagrangian Particles:           888
       Radiation Loss to Boundaries:        -0.003 kW
       Mesh   16
       Max CFL number:  0.00E+00 at (   0,   0,   0)
       Max divergence: -0.10E+05 at (   0,   0,   0)
       Min divergence:  0.10E+05 at (   0,   0,   0)
       Max VN number:   0.00E+00 at (   0,   0,   0)
       Mesh   17
       Max CFL number:  0.36E+00 at (  20,  20,  56)
       Max divergence: -0.58E-12 at (   1,   7,  63)
       Min divergence: -0.38E-07 at (  25,  25,   1)
       Max VN number:   0.14E-02 at (  15,  22,  27)
       Radiation Loss to Boundaries:        -0.009 kW
       Mesh   18
       Max CFL number:  0.39E+00 at (  25,   1,  11)
       Max divergence: -0.13E-11 at (  21,   1,   5)
       Min divergence: -0.69E-06 at (  25,  25,   1)
       Max VN number:   0.13E+00 at (  25,  18,   1)
       No. of Lagrangian Particles:           247
       Radiation Loss to Boundaries:        -0.043 kW
       Mesh   19
       Max CFL number:  0.45E+00 at (  16,   1,  25)
       Max divergence:  0.46E-13 at (  11,   1,  21)
       Min divergence: -0.19E-06 at (   1,  25,   2)
       Max VN number:   0.10E+00 at (   1,  22,   1)
       No. of Lagrangian Particles:          1592
       Radiation Loss to Boundaries:        -0.010 kW
       Mesh   20
       Max CFL number:  0.44E+00 at (  25,   3,  62)
       Max divergence:  0.34E-12 at (  24,   2,  61)
       Min divergence: -0.59E-08 at (   1,  25,  28)
       Max VN number:   0.67E-01 at (  21,  21,  50)
       No. of Lagrangian Particles:          1568
       Mesh   21
       Max CFL number:  0.36E+00 at (   3,  14,   3)
       Max divergence: -0.24E-11 at (   1,  25,  63)
       Min divergence: -0.18E-06 at (  25,   1,   1)
       Max VN number:   0.13E-02 at (  14,  13,  40)
       Radiation Loss to Boundaries:        -0.042 kW
       Mesh   22
       Max CFL number:  0.36E+00 at (  25,   1,   3)
       Max divergence: -0.92E-11 at (   1,  25,  63)
       Min divergence: -0.65E-06 at (  25,   1,   1)
       Max VN number:   0.13E-02 at (   9,  22,  31)
       Radiation Loss to Boundaries:        -0.072 kW
       Mesh   23
       Max CFL number:  0.38E+00 at (  12,   1,  12)
       Max divergence: -0.86E-11 at (  19,  13,  12)
       Min divergence: -0.43E-06 at (   1,   1,   1)
       Max VN number:   0.94E-01 at (  12,  25,   1)
       No. of Lagrangian Particles:          1096
       Radiation Loss to Boundaries:        -0.036 kW
       Mesh   24
       Max CFL number:  0.47E+00 at (  25,  15,  45)
       Max divergence: -0.27E-12 at (  25,  19,  46)
       Min divergence: -0.16E-07 at (   1,   1,  26)
       Max VN number:   0.67E-01 at (  10,  17,  30)
       No. of Lagrangian Particles:          1518
       Radiation Loss to Boundaries:        -0.002 kW
       Mesh   25
       Max CFL number:  0.36E+00 at (  18,   7,  31)
       Max divergence: -0.99E-12 at (   1,  25,  63)
       Min divergence: -0.34E-07 at (  25,   1,   1)
       Max VN number:   0.13E-02 at (  14,  13,  50)
       Radiation Loss to Boundaries:        -0.014 kW
       Mesh   26
       Max CFL number:  0.36E+00 at (  11,   4,   4)
       Max divergence: -0.84E-11 at (   1,  25,  63)
       Min divergence: -0.73E-06 at (  25,   1,   1)
       Max VN number:   0.14E-02 at (  22,  21,   8)
       Radiation Loss to Boundaries:        -0.128 kW
       Mesh   27
       Max CFL number:  0.38E+00 at (  25,  19,  13)
       Max divergence: -0.70E-11 at (   1,  25,  63)
       Min divergence: -0.55E-07 at (   1,   1,   1)
       Max VN number:   0.94E-01 at (  16,  16,   1)
       No. of Lagrangian Particles:           673
       Radiation Loss to Boundaries:        -0.024 kW
       Mesh   28
       Max CFL number:  0.40E+00 at (  25,  16,  45)
       Max divergence: -0.12E-12 at (  25,  17,  45)
       Min divergence: -0.89E-08 at (   1,   1,  19)
       Max VN number:   0.60E-01 at (   1,  19,  13)
       No. of Lagrangian Particles:          1591
       Radiation Loss to Boundaries:        -0.002 kW
       Mesh   29
       Max CFL number:  0.36E+00 at (  15,  16,  45)
       Max divergence: -0.38E-12 at (   1,   8,  63)
       Min divergence: -0.16E-07 at (  25,   1,   1)
       Max VN number:   0.13E-02 at (  22,  24,  58)
       Radiation Loss to Boundaries:        -0.007 kW
       Mesh   30
       Max CFL number:  0.36E+00 at (  11,  13,  36)
       Max divergence: -0.46E-11 at (   1,  25,  63)
       Min divergence: -0.33E-06 at (  25,   1,   1)
       Max VN number:   0.13E-02 at (   5,  23,  54)
       Radiation Loss to Boundaries:        -0.055 kW
       Mesh   31
       Max CFL number:  0.38E+00 at (  24,   9,   8)
       Max divergence: -0.30E-11 at (   1,  25,  63)
       Min divergence: -0.49E-07 at (  17,   1,   1)
       Max VN number:   0.94E-01 at (  18,   3,   1)
       No. of Lagrangian Particles:           500
       Radiation Loss to Boundaries:        -0.014 kW
       Mesh   32
       Max CFL number:  0.40E+00 at (  25,   7,  33)
       Max divergence:  0.12E-12 at (  25,  24,  15)
       Min divergence: -0.83E-08 at (   1,   1,  13)
       Max VN number:   0.60E-01 at (   8,  25,  17)
       No. of Lagrangian Particles:          1359
       Radiation Loss to Boundaries:        -0.002 kW

       Time Step       2   June 22, 2020  11:41:07
       Step Size:    0.100E+00 s, Total Time:       0.20 s
       Pressure Iterations:     10
       Maximum Velocity Error:  0.62E+00 on Mesh  23 at (  25  26  16)
       Maximum Pressure Error:  0.13E+00 on Mesh   7 at (   1  24  51)
       ---------------------------------------------------------------
       Mesh    1
       Max CFL number:  0.18E+01 at (  11,  12,  33)
       Max divergence:  0.50E-12 at (   1,  13,  25)
       Min divergence: -0.19E-07 at (  25,  25,  39)
       Max VN number:   0.54E+00 at (   6,   5,  27)
       No. of Lagrangian Particles:          1386
       Radiation Loss to Boundaries:        -0.006 kW
       Mesh    2
       Max CFL number:  0.15E+01 at (  14,   3,  59)
       Max divergence: -0.11E-11 at (  12,   1,  56)
       Min divergence: -0.25E-06 at (  24,  25,  63)
       Max VN number:   0.50E+00 at (   2,   3,  47)
       No. of Lagrangian Particles:          1254
       Radiation Loss to Boundaries:        -0.008 kW
       Mesh    3
       Max CFL number:  0.56E+00 at (   1,  24,  63)
       Max divergence: -0.80E-08 at (   1,  24,  63)
       Min divergence: -0.17E-07 at (   1,  25,  63)
       Max VN number:   0.27E+00 at (   1,  24,  63)
       No. of Lagrangian Particles:             5
       Mesh    4
       Max CFL number:  0.54E-01 at (   0,   0,   0)
       Max divergence: -0.10E+05 at (   0,   0,   0)
       Min divergence:  0.10E+05 at (   0,   0,   0)
       Max VN number:   0.00E+00 at (   0,   0,   0)
       Mesh    5
       Max CFL number:  0.16E+01 at (  13,  25,  14)
       Max divergence:  0.29E-09 at (  25,  13,  29)
       Min divergence: -0.40E-07 at (  25,   1,  39)
       Max VN number:   0.54E+00 at (  15,  22,  16)
       No. of Lagrangian Particles:          1484
       Radiation Loss to Boundaries:        -0.014 kW
       Mesh    6
       Max CFL number:  0.17E+01 at (   2,  22,  28)
       Max divergence:  0.65E+00 at (  25,  24,  49)
       Min divergence: -0.22E-03 at (  23,  23,  49)
       Max VN number:   0.51E+00 at (  17,  23,  42)
       No. of Lagrangian Particles:          1552
       Total Heat Release Rate:            632.418 kW
       Radiation Loss to Boundaries:        -0.041 kW
       Mesh    7
       Max CFL number:  0.13E+01 at (   3,  24,  54)
       Max divergence:  0.26E+00 at (   1,  25,  51)
       Min divergence: -0.28E-03 at (   1,  22,  51)
       Max VN number:   0.47E+00 at (   8,  16,  62)
       No. of Lagrangian Particles:           451
       Total Heat Release Rate:            200.850 kW
       Mesh    8
       Max CFL number:  0.54E-01 at (   0,   0,   0)
       Max divergence: -0.10E+05 at (   0,   0,   0)
       Min divergence:  0.10E+05 at (   0,   0,   0)
       Max VN number:   0.00E+00 at (   0,   0,   0)
       Mesh    9
       Max CFL number:  0.20E+01 at (  11,  10,  12)
       Max divergence: -0.20E-11 at (   1,  15,   5)
       Min divergence: -0.27E-07 at (  25,   1,  28)
       Max VN number:   0.57E+00 at (  18,   6,  19)
       No. of Lagrangian Particles:          1239
       Radiation Loss to Boundaries:        -0.018 kW
       Mesh   10
       Max CFL number:  0.18E+01 at (   1,  20,  25)
       Max divergence:  0.30E+00 at (  24,   1,  49)
       Min divergence: -0.13E-03 at (  25,   2,  50)
       Max VN number:   0.52E+00 at (  12,   9,  35)
       No. of Lagrangian Particles:          1297
       Total Heat Release Rate:            255.149 kW
       Radiation Loss to Boundaries:        -0.025 kW
       Mesh   11
       Max CFL number:  0.17E+01 at (  13,   8,  63)
       Max divergence:  0.44E+00 at (   1,   1,  50)
       Min divergence: -0.41E-02 at (   1,   1,  51)
       Max VN number:   0.53E+00 at (   9,  20,  54)
       No. of Lagrangian Particles:           832
       Total Heat Release Rate:            157.325 kW
       Radiation Loss to Boundaries:        -0.003 kW
       Mesh   12
       Max CFL number:  0.55E-01 at (   0,   0,   0)
       Max divergence: -0.10E+05 at (   0,   0,   0)
       Min divergence:  0.10E+05 at (   0,   0,   0)
       Max VN number:   0.00E+00 at (   0,   0,   0)
       Mesh   13
       Max CFL number:  0.18E+01 at (  11,  10,  11)
       Max divergence: -0.67E-12 at (   2,  25,  11)
       Min divergence: -0.43E-07 at (  25,   1,  24)
       Max VN number:   0.59E+00 at (   8,  17,  10)
       No. of Lagrangian Particles:          1241
       Radiation Loss to Boundaries:        -0.010 kW
       Mesh   14
       Max CFL number:  0.17E+01 at (  21,   9,  41)
       Max divergence: -0.23E-11 at (  12,  25,  35)
       Min divergence: -0.45E-07 at (  25,   1,  63)
       Max VN number:   0.54E+00 at (  11,  24,  34)
       No. of Lagrangian Particles:          1284
       Radiation Loss to Boundaries:        -0.011 kW
       Mesh   15
       Max CFL number:  0.19E+01 at (   2,   4,  48)
       Max divergence: -0.58E-11 at (  13,  25,  58)
       Min divergence: -0.20E-07 at (  15,   1,  63)
       Max VN number:   0.54E+00 at (  12,   7,  57)
       No. of Lagrangian Particles:           888
       Radiation Loss to Boundaries:        -0.003 kW
       Mesh   16
       Max CFL number:  0.49E-01 at (   0,   0,   0)
       Max divergence: -0.10E+05 at (   0,   0,   0)
       Min divergence:  0.10E+05 at (   0,   0,   0)
       Max VN number:   0.00E+00 at (   0,   0,   0)
       Mesh   17
       Max CFL number:  0.40E+00 at (  25,   2,   1)
       Max divergence: -0.57E-12 at (   1,   7,  63)
       Min divergence: -0.37E-07 at (  25,  25,   1)
       Max VN number:   0.14E-02 at (  11,  22,  48)
       Radiation Loss to Boundaries:        -0.009 kW
       Mesh   18
       Max CFL number:  0.17E+01 at (  17,   4,   1)
       Max divergence:  0.29E-09 at (  17,   5,   1)
       Min divergence: -0.66E-06 at (  25,  25,   1)
       Max VN number:   0.41E+00 at (  20,   7,   3)
       No. of Lagrangian Particles:           247
       Radiation Loss to Boundaries:        -0.043 kW
       Mesh   19
       Max CFL number:  0.16E+01 at (  14,   6,  24)
       Max divergence: -0.20E-13 at (  11,   1,  21)
       Min divergence: -0.19E-06 at (   1,  25,   2)
       Max VN number:   0.54E+00 at (  23,  10,  31)
       No. of Lagrangian Particles:          1592
       Radiation Loss to Boundaries:        -0.010 kW
       Mesh   20
       Max CFL number:  0.17E+01 at (   2,  14,  34)
       Max divergence:  0.67E-12 at (  24,   7,  62)
       Min divergence: -0.60E-08 at (   1,  25,  28)
       Max VN number:   0.49E+00 at (  14,  15,  44)
       No. of Lagrangian Particles:          1568
       Mesh   21
       Max CFL number:  0.39E+00 at (  23,   3,  11)
       Max divergence: -0.24E-11 at (   1,  25,  63)
       Min divergence: -0.17E-06 at (  25,   1,   1)
       Max VN number:   0.14E-02 at (  23,  17,  19)
       Radiation Loss to Boundaries:        -0.042 kW
       Mesh   22
       Max CFL number:  0.40E+00 at (  25,   1,   7)
       Max divergence: -0.92E-11 at (   1,  25,  63)
       Min divergence: -0.64E-06 at (  25,   1,   1)
       Max VN number:   0.29E-02 at (  25,   2,   1)
       Radiation Loss to Boundaries:        -0.072 kW
       Mesh   23
       Max CFL number:  0.17E+01 at (  19,  21,  10)
       Max divergence: -0.81E-11 at (  25,   9,  20)
       Min divergence: -0.40E-06 at (   1,   1,   1)
       Max VN number:   0.52E+00 at (  12,  17,   3)
       No. of Lagrangian Particles:          1096
       Radiation Loss to Boundaries:        -0.036 kW
       Mesh   24
       Max CFL number:  0.19E+01 at (   9,  11,  29)
       Max divergence:  0.10E-09 at (  12,  25,  33)
       Min divergence: -0.15E-07 at (   1,   1,  26)
       Max VN number:   0.56E+00 at (   2,  12,  20)
       No. of Lagrangian Particles:          1518
       Radiation Loss to Boundaries:        -0.002 kW
       Mesh   25
       Max CFL number:  0.39E+00 at (  18,  20,  34)
       Max divergence: -0.10E-11 at (   1,  24,  63)
       Min divergence: -0.34E-07 at (  25,   1,   1)
       Max VN number:   0.14E-02 at (  14,  22,  57)
       Radiation Loss to Boundaries:        -0.014 kW
       Mesh   26
       Max CFL number:  0.40E+00 at (  25,   1,   1)
       Max divergence: -0.84E-11 at (   1,  25,  63)
       Min divergence: -0.73E-06 at (  25,   1,   1)
       Max VN number:   0.15E-02 at (  23,   6,   6)
       Radiation Loss to Boundaries:        -0.128 kW
       Mesh   27
       Max CFL number:  0.16E+01 at (  25,  12,  14)
       Max divergence: -0.70E-11 at (   1,  25,  63)
       Min divergence: -0.55E-07 at (   1,   1,   1)
       Max VN number:   0.49E+00 at (  21,  13,   7)
       No. of Lagrangian Particles:           673
       Radiation Loss to Boundaries:        -0.024 kW
       Mesh   28
       Max CFL number:  0.18E+01 at (  23,  11,  44)
       Max divergence: -0.20E-12 at (  25,  16,  45)
       Min divergence: -0.88E-08 at (   1,   1,  19)
       Max VN number:   0.50E+00 at (  18,   5,  39)
       No. of Lagrangian Particles:          1591
       Radiation Loss to Boundaries:        -0.002 kW
       Mesh   29
       Max CFL number:  0.39E+00 at (   4,  11,  50)
       Max divergence: -0.37E-12 at (   1,   8,  63)
       Min divergence: -0.16E-07 at (  25,   1,   1)
       Max VN number:   0.14E-02 at (   7,   6,  27)
       Radiation Loss to Boundaries:        -0.007 kW
       Mesh   30
       Max CFL number:  0.39E+00 at (  24,   2,   1)
       Max divergence: -0.46E-11 at (   1,  25,  63)
       Min divergence: -0.33E-06 at (  25,   1,   1)
       Max VN number:   0.13E-02 at (   4,   3,  53)
       Radiation Loss to Boundaries:        -0.055 kW
       Mesh   31
       Max CFL number:  0.17E+01 at (  22,   8,   5)
       Max divergence:  0.92E-09 at (  17,  14,   1)
       Min divergence: -0.45E-07 at (  17,   1,   1)
       Max VN number:   0.53E+00 at (  24,  18,   8)
       No. of Lagrangian Particles:           500
       Radiation Loss to Boundaries:        -0.014 kW
       Mesh   32
       Max CFL number:  0.18E+01 at (  14,  25,  16)
       Max divergence:  0.55E-12 at (  21,  24,  16)
       Min divergence: -0.84E-08 at (   1,   1,  13)
       Max VN number:   0.52E+00 at (  16,  24,  16)
       No. of Lagrangian Particles:          1359
       Radiation Loss to Boundaries:        -0.002 kW

       Time Step       3   June 22, 2020  11:41:08
       Step Size:    0.100E+00 s, Total Time:       0.30 s
       Pressure Iterations:     10
       Maximum Velocity Error:  0.74E+00 on Mesh  23 at (  12  26   1)
       Maximum Pressure Error:  0.52E+01 on Mesh   6 at (  25  24  49)
       ---------------------------------------------------------------
       Mesh    1
       Max CFL number:  0.83E+00 at (  24,  18,  43)
       Max divergence: -0.34E-13 at (  15,   2,  36)
       Min divergence: -0.20E-07 at (  25,  25,  39)
       Max VN number:   0.68E+00 at (   6,  12,  28)
       No. of Lagrangian Particles:          1386
       Radiation Loss to Boundaries:        -0.006 kW
       Mesh    2
       Max CFL number:  0.81E+00 at (  14,  13,  57)
       Max divergence: -0.14E-11 at (  12,   1,  56)
       Min divergence: -0.26E-06 at (  24,  25,  63)
       Max VN number:   0.70E+00 at (  14,  13,  56)
       No. of Lagrangian Particles:          1254
       Radiation Loss to Boundaries:        -0.008 kW
       Mesh    3
       Max CFL number:  0.49E+00 at (   1,  24,  63)
       Max divergence: -0.11E-07 at (   1,  24,  63)
       Min divergence: -0.16E-07 at (   1,  25,  63)
       Max VN number:   0.40E+00 at (   1,  24,  63)
       No. of Lagrangian Particles:             5
       Mesh    4
       Max CFL number:  0.91E-01 at (   0,   0,   0)
       Max divergence: -0.10E+05 at (   0,   0,   0)
       Min divergence:  0.10E+05 at (   0,   0,   0)
       Max VN number:   0.00E+00 at (   0,   0,   0)
       Mesh    5
       Max CFL number:  0.96E+00 at (  25,  16,  29)
       Max divergence: -0.36E-11 at (  11,  24,  13)
       Min divergence: -0.40E-07 at (  25,   1,  39)
       Max VN number:   0.79E+00 at (   7,  22,   9)
       No. of Lagrangian Particles:          1484
       Radiation Loss to Boundaries:        -0.014 kW
       Mesh    6
       Max CFL number:  0.90E+00 at (   4,  22,  30)
       Max divergence:  0.61E+00 at (  25,  24,  49)
       Min divergence: -0.40E-05 at (  25,  22,  52)
       Max VN number:   0.78E+00 at (  15,  14,  41)
       No. of Lagrangian Particles:          1552
       Total Heat Release Rate:            846.066 kW
       Radiation Loss to Boundaries:      -111.624 kW
       Mesh    7
       Max CFL number:  0.71E+00 at (   3,  10,  61)
       Max divergence:  0.61E+00 at (   1,  24,  51)
       Min divergence: -0.21E-05 at (   1,  21,  52)
       Max VN number:   0.71E+00 at (   2,  21,  53)
       No. of Lagrangian Particles:           451
       Total Heat Release Rate:            393.548 kW
       Radiation Loss to Boundaries:       -35.472 kW
       Mesh    8
       Max CFL number:  0.90E-01 at (   0,   0,   0)
       Max divergence: -0.10E+05 at (   0,   0,   0)
       Min divergence:  0.10E+05 at (   0,   0,   0)
       Max VN number:   0.00E+00 at (   0,   0,   0)
       Mesh    9
       Max CFL number:  0.13E+01 at (  11,  10,  12)
       Max divergence: -0.21E-11 at (   1,  15,   5)
       Min divergence: -0.26E-07 at (  25,   1,  28)
       Max VN number:   0.83E+00 at (  10,  17,  11)
       No. of Lagrangian Particles:          1239
       Radiation Loss to Boundaries:        -0.018 kW
       Mesh   10
       Max CFL number:  0.93E+00 at (   1,  21,  25)
       Max divergence:  0.44E+00 at (  24,   1,  49)
       Min divergence: -0.25E-05 at (  22,   2,  48)
       Max VN number:   0.82E+00 at (   8,  18,  30)
       No. of Lagrangian Particles:          1297
       Total Heat Release Rate:            464.801 kW
       Radiation Loss to Boundaries:       -69.578 kW
       Mesh   11
       Max CFL number:  0.92E+00 at (   7,  22,  53)
       Max divergence:  0.63E+00 at (   1,   1,  50)
       Min divergence: -0.16E-07 at (  15,  25,  63)
       Max VN number:   0.81E+00 at (   9,  20,  54)
       No. of Lagrangian Particles:           832
       Total Heat Release Rate:            264.128 kW
       Radiation Loss to Boundaries:       -18.411 kW
       Mesh   12
       Max CFL number:  0.94E-01 at (   0,   0,   0)
       Max divergence: -0.10E+05 at (   0,   0,   0)
       Min divergence:  0.10E+05 at (   0,   0,   0)
       Max VN number:   0.00E+00 at (   0,   0,   0)
       Mesh   13
       Max CFL number:  0.96E+00 at (  23,   4,  22)
       Max divergence: -0.91E-12 at (   2,  25,  11)
       Min divergence: -0.43E-07 at (  25,   1,  24)
       Max VN number:   0.85E+00 at (  23,   4,  21)
       No. of Lagrangian Particles:          1241
       Radiation Loss to Boundaries:        -0.010 kW
       Mesh   14
       Max CFL number:  0.95E+00 at (  14,   5,  36)
       Max divergence: -0.28E-11 at (  12,  25,  35)
       Min divergence: -0.45E-07 at (  25,   1,  63)
       Max VN number:   0.87E+00 at (  14,   5,  35)
       No. of Lagrangian Particles:          1284
       Radiation Loss to Boundaries:        -0.011 kW
       Mesh   15
       Max CFL number:  0.78E+00 at (  14,   9,  61)
       Max divergence: -0.65E-11 at (  13,  25,  58)
       Min divergence: -0.21E-07 at (  15,   1,  63)
       Max VN number:   0.72E+00 at (  15,   3,  60)
       No. of Lagrangian Particles:           888
       Radiation Loss to Boundaries:        -0.003 kW
       Mesh   16
       Max CFL number:  0.87E-01 at (   0,   0,   0)
       Max divergence: -0.10E+05 at (   0,   0,   0)
       Min divergence:  0.10E+05 at (   0,   0,   0)
       Max VN number:   0.00E+00 at (   0,   0,   0)
       Mesh   17
       Max CFL number:  0.42E+00 at (  25,   1,   1)
       Max divergence: -0.57E-12 at (   1,   7,  63)
       Min divergence: -0.37E-07 at (  25,  25,   1)
       Max VN number:   0.73E-02 at (  25,  25,  63)
       Radiation Loss to Boundaries:        -0.009 kW
       Mesh   18
       Max CFL number:  0.85E+00 at (  24,  14,   3)
       Max divergence: -0.32E-11 at (   1,   1,  63)
       Min divergence: -0.66E-06 at (  25,  25,   1)
       Max VN number:   0.71E+00 at (  22,   4,   5)
       No. of Lagrangian Particles:           247
       Radiation Loss to Boundaries:        -0.043 kW
       Mesh   19
       Max CFL number:  0.81E+00 at (  24,   5,  34)
       Max divergence: -0.26E-12 at (  12,   2,  22)
       Min divergence: -0.20E-06 at (   1,  25,   2)
       Max VN number:   0.82E+00 at (  23,  10,  31)
       No. of Lagrangian Particles:          1592
       Radiation Loss to Boundaries:        -0.010 kW
       Mesh   20
       Max CFL number:  0.79E+00 at (  25,  14,  59)
       Max divergence:  0.40E-12 at (  24,   7,  62)
       Min divergence: -0.62E-08 at (   1,  25,  28)
       Max VN number:   0.71E+00 at (   2,  12,  34)
       No. of Lagrangian Particles:          1568
       Mesh   21
       Max CFL number:  0.40E+00 at (   9,  20,  63)
       Max divergence: -0.24E-11 at (   1,  25,  63)
       Min divergence: -0.17E-06 at (  25,   1,   1)
       Max VN number:   0.72E-02 at (   3,  24,  63)
       Radiation Loss to Boundaries:        -0.042 kW
       Mesh   22
       Max CFL number:  0.42E+00 at (  25,   1,   1)
       Max divergence: -0.92E-11 at (   1,  25,  63)
       Min divergence: -0.63E-06 at (  25,   1,   1)
       Max VN number:   0.19E-01 at (  25,   2,   1)
       Radiation Loss to Boundaries:        -0.071 kW
       Mesh   23
       Max CFL number:  0.85E+00 at (  24,  10,  19)
       Max divergence: -0.12E-10 at (   1,  14,  63)
       Min divergence: -0.41E-06 at (   1,   1,   1)
       Max VN number:   0.81E+00 at (   6,   5,   1)
       No. of Lagrangian Particles:          1096
       Radiation Loss to Boundaries:        -0.036 kW
       Mesh   24
       Max CFL number:  0.98E+00 at (  11,   8,  33)
       Max divergence: -0.68E-12 at (  25,  17,  46)
       Min divergence: -0.15E-07 at (   1,   1,  26)
       Max VN number:   0.83E+00 at (  11,   8,  31)
       No. of Lagrangian Particles:          1518
       Radiation Loss to Boundaries:        -0.002 kW
       Mesh   25
       Max CFL number:  0.40E+00 at (   9,   3,  63)
       Max divergence: -0.98E-12 at (   1,  25,  63)
       Min divergence: -0.34E-07 at (  25,   1,   1)
       Max VN number:   0.76E-02 at (   7,  15,  63)
       Radiation Loss to Boundaries:        -0.014 kW
       Mesh   26
       Max CFL number:  0.40E+00 at (  25,   1,   1)
       Max divergence: -0.84E-11 at (   1,  25,  63)
       Min divergence: -0.73E-06 at (  25,   1,   1)
       Max VN number:   0.74E-02 at (  22,   5,  63)
       Radiation Loss to Boundaries:        -0.128 kW
       Mesh   27
       Max CFL number:  0.84E+00 at (  19,   2,   9)
       Max divergence: -0.71E-11 at (   1,  25,  63)
       Min divergence: -0.55E-07 at (   1,   1,   1)
       Max VN number:   0.79E+00 at (  17,   9,   4)
       No. of Lagrangian Particles:           673
       Radiation Loss to Boundaries:        -0.024 kW
       Mesh   28
       Max CFL number:  0.91E+00 at (  17,   5,  40)
       Max divergence: -0.28E-12 at (  25,  16,  45)
       Min divergence: -0.90E-08 at (   1,   1,  19)
       Max VN number:   0.81E+00 at (  17,   5,  38)
       No. of Lagrangian Particles:          1591
       Radiation Loss to Boundaries:        -0.002 kW
       Mesh   29
       Max CFL number:  0.40E+00 at (   6,   5,  63)
       Max divergence: -0.37E-12 at (   1,   8,  63)
       Min divergence: -0.16E-07 at (  25,   1,   1)
       Max VN number:   0.73E-02 at (  22,   2,  63)
       Radiation Loss to Boundaries:        -0.007 kW
       Mesh   30
       Max CFL number:  0.40E+00 at (  24,   1,   1)
       Max divergence: -0.46E-11 at (   1,  25,  63)
       Min divergence: -0.33E-06 at (  25,   1,   1)
       Max VN number:   0.70E-02 at (   5,  10,  63)
       Radiation Loss to Boundaries:        -0.055 kW
       Mesh   31
       Max CFL number:  0.92E+00 at (  20,  19,   6)
       Max divergence:  0.78E-10 at (  17,  14,   1)
       Min divergence: -0.46E-07 at (  17,   1,   1)
       Max VN number:   0.63E+00 at (  24,  23,  10)
       No. of Lagrangian Particles:           500
       Radiation Loss to Boundaries:        -0.014 kW
       Mesh   32
       Max CFL number:  0.87E+00 at (  23,  15,  25)
       Max divergence:  0.19E-12 at (  15,  23,  18)
       Min divergence: -0.84E-08 at (   1,   1,  13)
       Max VN number:   0.94E+00 at (  16,  25,  16)
       No. of Lagrangian Particles:          1359
       Radiation Loss to Boundaries:        -0.002 kW

       Time Step       4   June 22, 2020  11:41:08
       Step Size:    0.100E+00 s, Total Time:       0.40 s
       Pressure Iterations:     10
       Maximum Velocity Error:  0.68E+00 on Mesh  27 at (  12   1   0)
       Maximum Pressure Error:  0.99E+01 on Mesh   6 at (  24  24  49)
       ---------------------------------------------------------------
       Mesh    1
       Max CFL number:  0.26E+01 at (   9,  13,  31)
       Max divergence:  0.74E-09 at (  25,   6,  47)
       Min divergence: -0.17E-07 at (  25,  25,  38)
       Max VN number:   0.61E+00 at (   7,   9,  29)
       No. of Lagrangian Particles:          1386
       Radiation Loss to Boundaries:        -0.004 kW
       Mesh    2
       Max CFL number:  0.20E+01 at (  14,   3,  59)
       Max divergence: -0.18E-11 at (  11,   2,  55)
       Min divergence: -0.17E-06 at (  25,  25,  63)
       Max VN number:   0.54E+00 at (  14,  13,  56)
       No. of Lagrangian Particles:          1254
       Radiation Loss to Boundaries:        -0.004 kW
       Mesh    3
       Max CFL number:  0.25E+00 at (   1,  25,  63)
       Max divergence: -0.98E-08 at (   1,  24,  63)
       Min divergence: -0.17E-07 at (   1,  25,  63)
       Max VN number:   0.35E+00 at (   1,  24,  63)
       No. of Lagrangian Particles:             5
       Mesh    4
       Max CFL number:  0.14E+00 at (   0,   0,   0)
       Max divergence: -0.10E+05 at (   0,   0,   0)
       Min divergence:  0.10E+05 at (   0,   0,   0)
       Max VN number:   0.00E+00 at (   0,   0,   0)
       Mesh    5
       Max CFL number:  0.24E+01 at (  13,  25,  14)
       Max divergence: -0.53E-11 at (   9,  23,  12)
       Min divergence: -0.25E-07 at (  25,   1,  39)
       Max VN number:   0.61E+00 at (  12,  23,  13)
       No. of Lagrangian Particles:          1484
       Radiation Loss to Boundaries:        -0.009 kW
       Mesh    6
       Max CFL number:  0.28E+01 at (  19,  21,  44)
       Max divergence:  0.14E+01 at (  24,  25,  49)
       Min divergence: -0.10E-03 at (  24,  21,  49)
       Max VN number:   0.57E+00 at (   4,  22,  29)
       No. of Lagrangian Particles:          1552
       Total Heat Release Rate:           2390.766 kW
       Radiation Loss to Boundaries:      -259.565 kW
       Mesh    7
       Max CFL number:  0.16E+01 at (  11,  24,  63)
       Max divergence:  0.10E+01 at (   1,  25,  51)
       Min divergence: -0.60E-07 at (   1,   1,  63)
       Max VN number:   0.45E+00 at (   3,  10,  60)
       No. of Lagrangian Particles:           451
       Total Heat Release Rate:            803.790 kW
       Radiation Loss to Boundaries:       -68.155 kW
       Mesh    8
       Max CFL number:  0.12E+00 at (   0,   0,   0)
       Max divergence: -0.10E+05 at (   0,   0,   0)
       Min divergence:  0.10E+05 at (   0,   0,   0)
       Max VN number:   0.00E+00 at (   0,   0,   0)
       Mesh    9
       Max CFL number:  0.30E+01 at (   6,   4,   8)
       Max divergence:  0.42E-08 at (   1,   2,   4)
       Min divergence: -0.26E-07 at (  25,  25,  24)
       Max VN number:   0.78E+00 at (  22,   7,  22)
       No. of Lagrangian Particles:          1239
       Radiation Loss to Boundaries:        -0.009 kW
       Mesh   10
       Max CFL number:  0.29E+01 at (   8,  20,  30)
       Max divergence:  0.13E+01 at (  25,   1,  49)
       Min divergence: -0.39E-07 at (  25,   3,  63)
       Max VN number:   0.57E+00 at (   4,   8,  28)
       No. of Lagrangian Particles:          1297
       Total Heat Release Rate:           1436.721 kW
       Radiation Loss to Boundaries:      -145.728 kW
       Mesh   11
       Max CFL number:  0.29E+01 at (   2,  21,  48)
       Max divergence:  0.70E+00 at (   1,   1,  50)
       Min divergence: -0.15E-07 at (  17,  25,  63)
       Max VN number:   0.57E+00 at (  14,  19,  61)
       No. of Lagrangian Particles:           832
       Total Heat Release Rate:            420.619 kW
       Radiation Loss to Boundaries:       -65.673 kW
       Mesh   12
       Max CFL number:  0.13E+00 at (   0,   0,   0)
       Max divergence: -0.10E+05 at (   0,   0,   0)
       Min divergence:  0.10E+05 at (   0,   0,   0)
       Max VN number:   0.00E+00 at (   0,   0,   0)
       Mesh   13
       Max CFL number:  0.31E+01 at (  16,   6,  15)
       Max divergence:  0.32E-08 at (  12,   2,  12)
       Min divergence: -0.21E-07 at (  25,   1,  25)
       Max VN number:   0.70E+00 at (  21,  23,  22)
       No. of Lagrangian Particles:          1241
       Radiation Loss to Boundaries:        -0.006 kW
       Mesh   14
       Max CFL number:  0.31E+01 at (  13,  10,  34)
       Max divergence:  0.50E-08 at (  18,   2,  39)
       Min divergence: -0.40E-07 at (  25,   1,  63)
       Max VN number:   0.77E+00 at (  20,  20,  42)
       No. of Lagrangian Particles:          1284
       Radiation Loss to Boundaries:        -0.007 kW
       Mesh   15
       Max CFL number:  0.29E+01 at (  13,   1,  58)
       Max divergence:  0.72E-08 at (  13,   2,  58)
       Min divergence: -0.31E-07 at (  17,   1,  63)
       Max VN number:   0.71E+00 at (  15,  11,  62)
       No. of Lagrangian Particles:           888
       Radiation Loss to Boundaries:        -0.001 kW
       Mesh   16
       Max CFL number:  0.12E+00 at (   0,   0,   0)
       Max divergence: -0.10E+05 at (   0,   0,   0)
       Min divergence:  0.10E+05 at (   0,   0,   0)
       Max VN number:   0.00E+00 at (   0,   0,   0)
       Mesh   17
       Max CFL number:  0.45E+00 at (  25,   1,   1)
       Max divergence: -0.59E-12 at (   1,   7,  63)
       Min divergence: -0.38E-07 at (  25,  25,   1)
       Max VN number:   0.71E-02 at (  22,   2,  63)
       Radiation Loss to Boundaries:        -0.007 kW
       Mesh   18
       Max CFL number:  0.19E+01 at (  17,   4,   1)
       Max divergence: -0.23E-11 at (   1,   1,  63)
       Min divergence: -0.55E-06 at (  25,  25,   1)
       Max VN number:   0.59E+00 at (  24,  14,   2)
       No. of Lagrangian Particles:           247
       Radiation Loss to Boundaries:        -0.033 kW
       Mesh   19
       Max CFL number:  0.23E+01 at (  14,   5,  24)
       Max divergence: -0.39E-12 at (  13,   1,  23)
       Min divergence: -0.44E-07 at (   1,  23,   1)
       Max VN number:   0.53E+00 at (   4,  18,   4)
       No. of Lagrangian Particles:          1592
       Radiation Loss to Boundaries:        -0.004 kW
       Mesh   20
       Max CFL number:  0.22E+01 at (  22,   4,  59)
       Max divergence:  0.13E-11 at (  24,   6,  62)
       Min divergence: -0.84E-08 at (   1,  25,  25)
       Max VN number:   0.53E+00 at (  15,   1,  52)
       No. of Lagrangian Particles:          1568
       Mesh   21
       Max CFL number:  0.40E+00 at (  25,   1,   9)
       Max divergence: -0.66E-12 at (   1,   1,  63)
       Min divergence: -0.10E-06 at (  25,   1,   1)
       Max VN number:   0.70E-02 at (   3,   7,  63)
       Radiation Loss to Boundaries:        -0.028 kW
       Mesh   22
       Max CFL number:  0.41E+00 at (  25,   1,   1)
       Max divergence: -0.88E-11 at (   1,  25,  63)
       Min divergence: -0.35E-06 at (  25,   1,   1)
       Max VN number:   0.41E-01 at (  25,   2,   1)
       Radiation Loss to Boundaries:        -0.051 kW
       Mesh   23
       Max CFL number:  0.22E+01 at (  22,  22,  13)
       Max divergence: -0.11E-10 at (   1,  14,  63)
       Min divergence: -0.25E-06 at (   1,   1,   1)
       Max VN number:   0.53E+00 at (  11,   3,   8)
       No. of Lagrangian Particles:          1096
       Radiation Loss to Boundaries:        -0.018 kW
       Mesh   24
       Max CFL number:  0.31E+01 at (   7,  23,  25)
       Max divergence: -0.42E-12 at (  25,  25,  63)
       Min divergence: -0.20E-07 at (   1,   1,  25)
       Max VN number:   0.78E+00 at (  24,  16,  45)
       No. of Lagrangian Particles:          1518
       Mesh   25
       Max CFL number:  0.39E+00 at (   9,   3,  63)
       Max divergence: -0.45E-12 at (   1,  25,  63)
       Min divergence: -0.23E-07 at (  25,   1,   1)
       Max VN number:   0.72E-02 at (   7,  15,  63)
       Radiation Loss to Boundaries:        -0.010 kW
       Mesh   26
       Max CFL number:  0.40E+00 at (  18,  15,  63)
       Max divergence: -0.64E-11 at (   1,  25,  63)
       Min divergence: -0.43E-06 at (  25,   1,   1)
       Max VN number:   0.69E-02 at (  22,   5,  63)
       Radiation Loss to Boundaries:        -0.083 kW
       Mesh   27
       Max CFL number:  0.24E+01 at (  19,  10,   6)
       Max divergence:  0.85E-09 at (  17,   2,   6)
       Min divergence: -0.43E-07 at (   1,   1,   1)
       Max VN number:   0.52E+00 at (  15,  11,   1)
       No. of Lagrangian Particles:           673
       Radiation Loss to Boundaries:        -0.012 kW
       Mesh   28
       Max CFL number:  0.31E+01 at (   3,  22,  15)
       Max divergence:  0.40E-09 at (  23,   2,  45)
       Min divergence: -0.85E-08 at (   1,   1,  17)
       Max VN number:   0.53E+00 at (   4,  12,  19)
       No. of Lagrangian Particles:          1591
       Radiation Loss to Boundaries:        -0.001 kW
       Mesh   29
       Max CFL number:  0.39E+00 at (  19,  24,  63)
       Max divergence: -0.11E-12 at (   1,  25,  63)
       Min divergence: -0.11E-07 at (  25,   1,   1)
       Max VN number:   0.70E-02 at (  22,   2,  63)
       Radiation Loss to Boundaries:        -0.004 kW
       Mesh   30
       Max CFL number:  0.39E+00 at (   8,  23,  63)
       Max divergence: -0.33E-11 at (   1,  25,  63)
       Min divergence: -0.19E-06 at (  25,   1,   1)
       Max VN number:   0.68E-02 at (  25,  24,  63)
       Radiation Loss to Boundaries:        -0.034 kW
       Mesh   31
       Max CFL number:  0.30E+01 at (  25,   5,   8)
       Max divergence:  0.51E-08 at (  16,  15,   1)
       Min divergence: -0.23E-07 at (  16,   1,   1)
       Max VN number:   0.64E+00 at (  21,  11,   5)
       No. of Lagrangian Particles:           500
       Radiation Loss to Boundaries:        -0.008 kW
       Mesh   32
       Max CFL number:  0.30E+01 at (  14,  23,  18)
       Max divergence:  0.11E-08 at (   1,  23,  12)
       Min divergence: -0.89E-08 at (  17,   1,  29)
       Max VN number:   0.76E+00 at (  15,  25,  16)
       No. of Lagrangian Particles:          1359

       Time Step       5   June 22, 2020  11:41:09
       Step Size:    0.100E+00 s, Total Time:       0.50 s
       Pressure Iterations:      8
       Maximum Velocity Error:  0.47E+00 on Mesh  11 at (  10  26  56)
       Maximum Pressure Error:  0.89E+01 on Mesh  10 at (  25   1  49)
       ---------------------------------------------------------------
       Mesh    1
       Max CFL number:  0.27E+01 at (  13,   6,  34)
       Max divergence:  0.30E-08 at (  25,   6,  47)
       Min divergence: -0.16E-07 at (  25,  25,  38)
       Max VN number:   0.94E+00 at (   4,   1,  25)
       No. of Lagrangian Particles:          1386
       Radiation Loss to Boundaries:        -0.004 kW
       Mesh    2
       Max CFL number:  0.81E+00 at (  13,   1,  59)
       Max divergence: -0.18E-11 at (  12,   1,  56)
       Min divergence: -0.17E-06 at (  25,  25,  63)
       Max VN number:   0.61E+00 at (   7,   4,  53)
       No. of Lagrangian Particles:          1254
       Radiation Loss to Boundaries:        -0.004 kW
       Mesh    3
       Max CFL number:  0.21E+00 at (   1,  24,  63)
       Max divergence: -0.86E-08 at (   1,  24,  63)
       Min divergence: -0.13E-07 at (   1,  25,  63)
       Max VN number:   0.26E+00 at (   1,  24,  63)
       No. of Lagrangian Particles:             5
       Mesh    4
       Max CFL number:  0.18E+00 at (   0,   0,   0)
       Max divergence: -0.10E+05 at (   0,   0,   0)
       Min divergence:  0.10E+05 at (   0,   0,   0)
       Max VN number:   0.00E+00 at (   0,   0,   0)
       Mesh    5
       Max CFL number:  0.20E+01 at (  10,  24,  12)
       Max divergence:  0.21E-10 at (  10,  22,  12)
       Min divergence: -0.24E-07 at (  25,   1,  39)
       Max VN number:   0.78E+00 at (  13,  24,  14)
       No. of Lagrangian Particles:          1484
       Radiation Loss to Boundaries:        -0.009 kW
       Mesh    6
       Max CFL number:  0.26E+01 at (  19,  21,  44)
       Max divergence:  0.12E+01 at (  25,  25,  49)
       Min divergence: -0.37E-06 at (  25,   1,  63)
       Max VN number:   0.73E+00 at (  19,  21,  44)
       No. of Lagrangian Particles:          1552
       Total Heat Release Rate:           2635.242 kW
       Radiation Loss to Boundaries:      -490.009 kW
       Mesh    7
       Max CFL number:  0.73E+00 at (  11,  25,  63)
       Max divergence:  0.14E+01 at (   1,  25,  51)
       Min divergence: -0.45E-07 at (   1,   3,  63)
       Max VN number:   0.38E+00 at (   3,  23,  54)
       No. of Lagrangian Particles:           451
       Total Heat Release Rate:            906.206 kW
       Radiation Loss to Boundaries:      -114.654 kW
       Mesh    8
       Max CFL number:  0.17E+00 at (   0,   0,   0)
       Max divergence: -0.10E+05 at (   0,   0,   0)
       Min divergence:  0.10E+05 at (   0,   0,   0)
       Max VN number:   0.00E+00 at (   0,   0,   0)
       Mesh    9
       Max CFL number:  0.35E+01 at (  12,  14,  13)
       Max divergence:  0.25E-08 at (  14,   2,  15)
       Min divergence: -0.23E-07 at (  25,  25,  24)
       Max VN number:   0.92E+00 at (  24,  11,  24)
       No. of Lagrangian Particles:          1239
       Radiation Loss to Boundaries:        -0.009 kW
       Mesh   10
       Max CFL number:  0.42E+01 at (   4,  22,  27)
       Max divergence:  0.11E+01 at (  25,   1,  49)
       Min divergence: -0.22E-01 at (  25,   2,  49)
       Max VN number:   0.11E+01 at (   4,  22,  27)
       No. of Lagrangian Particles:          1297
       Total Heat Release Rate:           1345.999 kW
       Radiation Loss to Boundaries:      -271.029 kW
       Mesh   11
       Max CFL number:  0.41E+01 at (   4,  17,  50)
       Max divergence:  0.47E+00 at (   1,   1,  50)
       Min divergence: -0.19E-07 at (  12,   1,  63)
       Max VN number:   0.82E+00 at (   4,  17,  50)
       No. of Lagrangian Particles:           832
       Total Heat Release Rate:            410.116 kW
       Radiation Loss to Boundaries:       -96.935 kW
       Mesh   12
       Max CFL number:  0.18E+00 at (   0,   0,   0)
       Max divergence: -0.10E+05 at (   0,   0,   0)
       Min divergence:  0.10E+05 at (   0,   0,   0)
       Max VN number:   0.00E+00 at (   0,   0,   0)
       Mesh   13
       Max CFL number:  0.41E+01 at (  10,   7,  10)
       Max divergence:  0.25E-08 at (  24,   5,  23)
       Min divergence: -0.23E-07 at (  25,   1,  24)
       Max VN number:   0.11E+01 at (  16,   7,  15)
       No. of Lagrangian Particles:          1241
       Radiation Loss to Boundaries:        -0.006 kW
       Mesh   14
       Max CFL number:  0.44E+01 at (  20,  21,  42)
       Max divergence:  0.15E-08 at (  18,   2,  39)
       Min divergence: -0.40E-07 at (  25,   1,  63)
       Max VN number:   0.12E+01 at (  20,  21,  42)
       No. of Lagrangian Particles:          1284
       Radiation Loss to Boundaries:        -0.007 kW
       Mesh   15
       Max CFL number:  0.39E+01 at (   7,   3,  53)
       Max divergence:  0.42E-07 at (  13,   2,  58)
       Min divergence: -0.53E-07 at (  13,   1,  58)
       Max VN number:   0.13E+01 at (  13,   2,  58)
       No. of Lagrangian Particles:           888
       Radiation Loss to Boundaries:        -0.001 kW
       Mesh   16
       Max CFL number:  0.16E+00 at (   0,   0,   0)
       Max divergence: -0.10E+05 at (   0,   0,   0)
       Min divergence:  0.10E+05 at (   0,   0,   0)
       Max VN number:   0.00E+00 at (   0,   0,   0)
       Mesh   17
       Max CFL number:  0.47E+00 at (  25,   1,   1)
       Max divergence: -0.60E-12 at (   1,   7,  63)
       Min divergence: -0.38E-07 at (  25,  25,   1)
       Max VN number:   0.63E-02 at (   1,   1,   2)
       Radiation Loss to Boundaries:        -0.007 kW
       Mesh   18
       Max CFL number:  0.24E+01 at (  17,   4,   1)
       Max divergence:  0.23E-09 at (  17,   2,   1)
       Min divergence: -0.55E-06 at (  25,  25,   1)
       Max VN number:   0.53E+00 at (  18,   1,   2)
       No. of Lagrangian Particles:           247
       Radiation Loss to Boundaries:        -0.033 kW
       Mesh   19
       Max CFL number:  0.16E+01 at (  14,   4,  24)
       Max divergence: -0.42E-12 at (  13,   1,  23)
       Min divergence: -0.49E-07 at (   1,  25,   1)
       Max VN number:   0.77E+00 at (   6,   1,  16)
       No. of Lagrangian Particles:          1592
       Radiation Loss to Boundaries:        -0.004 kW
       Mesh   20
       Max CFL number:  0.14E+01 at (  22,   3,  59)
       Max divergence:  0.22E-12 at (  22,   4,  59)
       Min divergence: -0.80E-08 at (   1,  25,  25)
       Max VN number:   0.62E+00 at (   8,   1,  44)
       No. of Lagrangian Particles:          1568
       Mesh   21
       Max CFL number:  0.40E+00 at (  25,   1,   8)
       Max divergence: -0.66E-12 at (   1,   1,  63)
       Min divergence: -0.10E-06 at (  25,   1,   1)
       Max VN number:   0.66E-02 at (   3,   7,  63)
       Radiation Loss to Boundaries:        -0.028 kW
       Mesh   22
       Max CFL number:  0.41E+00 at (  15,   1,  21)
       Max divergence: -0.88E-11 at (   1,  25,  63)
       Min divergence: -0.35E-06 at (  25,   1,   1)
       Max VN number:   0.55E-01 at (  25,   2,   1)
       Radiation Loss to Boundaries:        -0.051 kW
       Mesh   23
       Max CFL number:  0.15E+01 at (  23,  18,  15)
       Max divergence: -0.11E-10 at (   1,  14,  63)
       Min divergence: -0.26E-06 at (   1,   1,   1)
       Max VN number:   0.61E+00 at (  23,  21,  14)
       No. of Lagrangian Particles:          1096
       Radiation Loss to Boundaries:        -0.018 kW
       Mesh   24
       Max CFL number:  0.33E+01 at (  11,  14,  31)
       Max divergence:  0.49E-09 at (   5,  24,  22)
       Min divergence: -0.19E-07 at (   1,   1,  25)
       Max VN number:   0.12E+01 at (   7,  23,  25)
       No. of Lagrangian Particles:          1518
       Mesh   25
       Max CFL number:  0.39E+00 at (   4,  23,  63)
       Max divergence: -0.45E-12 at (   1,  25,  63)
       Min divergence: -0.23E-07 at (  25,   1,   1)
       Max VN number:   0.73E-02 at (   2,  24,  63)
       Radiation Loss to Boundaries:        -0.010 kW
       Mesh   26
       Max CFL number:  0.39E+00 at (  11,   9,  63)
       Max divergence: -0.64E-11 at (   1,  25,  63)
       Min divergence: -0.43E-06 at (  25,   1,   1)
       Max VN number:   0.80E-02 at (  22,  18,  63)
       Radiation Loss to Boundaries:        -0.083 kW
       Mesh   27
       Max CFL number:  0.14E+01 at (  17,  19,   1)
       Max divergence:  0.28E-09 at (  17,   2,   6)
       Min divergence: -0.43E-07 at (   1,   1,   1)
[...]
       Mesh    2
       Max CFL number:  0.37E+01 at (   0,   0,   0)
       Max divergence: -0.10E+05 at (   0,   0,   0)
       Min divergence:  0.10E+05 at (   1,   7,  48)
       Max VN number:   0.00E+00 at (  25,  25,  63)
       No. of Lagrangian Particles:          1254
       Radiation Loss to Boundaries:  -1129101.223 kW
       Mesh    3
       Max CFL number:  0.46E+01 at (   0,   0,   0)
       Max divergence: -0.10E+05 at (   0,   0,   0)
       Min divergence:  0.10E+05 at (   1,  25,  63)
       Max VN number:   0.00E+00 at (   1,  25,  63)
       No. of Lagrangian Particles:             5
       Radiation Loss to Boundaries:      -547.430 kW
       Mesh    4
       Max CFL number:  0.45E+01 at (   0,   0,   0)
       Max divergence: -0.10E+05 at (   0,   0,   0)
       Min divergence:  0.10E+05 at (   0,   0,   0)
       Max VN number:   0.00E+00 at (   0,   0,   0)
       Mesh    5
       Max CFL number:  0.31E+01 at (   0,   0,   0)
       Max divergence: -0.10E+05 at (   0,   0,   0)
       Min divergence:  0.10E+05 at (  10,  23,  12)
       Max VN number:   0.00E+00 at (  25,  25,  63)
       No. of Lagrangian Particles:          1484
       Radiation Loss to Boundaries:  -5246912.347 kW
       Mesh    6
       Max CFL number:  0.33E+01 at (   0,   0,   0)
       Max divergence: -0.10E+05 at (   0,   0,   0)
       Min divergence:  0.10E+05 at (  23,  24,  50)
       Max VN number:   0.00E+00 at (  25,  25,  63)
       No. of Lagrangian Particles:          1552
       Radiation Loss to Boundaries:  -2375299.094 kW
       Mesh    7
       Max CFL number:  0.42E+01 at (   0,   0,   0)
       Max divergence: -0.10E+05 at (   0,   0,   0)
       Min divergence:  0.10E+05 at (   1,   3,  63)
       Max VN number:   0.00E+00 at (  11,  25,  63)
       No. of Lagrangian Particles:           451
       Radiation Loss to Boundaries:   -182511.693 kW
       Mesh    8
       Max CFL number:  0.44E+01 at (   0,   0,   0)
       Max divergence: -0.10E+05 at (   0,   0,   0)
       Min divergence:  0.10E+05 at (   0,   0,   0)
       Max VN number:   0.00E+00 at (   0,   0,   0)
       Mesh    9
       Max CFL number:  0.32E+01 at (   0,   0,   0)
       Max divergence: -0.10E+05 at (   0,   0,   0)
       Min divergence:  0.10E+05 at (  25,  19,  25)
       Max VN number:   0.00E+00 at (  25,  25,  63)
       No. of Lagrangian Particles:          1239
       Radiation Loss to Boundaries:  -5794687.715 kW
       Mesh   10
       Max CFL number:  0.33E+01 at (   0,   0,   0)
       Max divergence: -0.10E+05 at (   0,   0,   0)
       Min divergence:  0.10E+05 at (  22,   1,  48)
       Max VN number:   0.00E+00 at (  25,  25,  63)
       No. of Lagrangian Particles:          1297
       Radiation Loss to Boundaries:  -2872310.994 kW
       Mesh   11
       Max CFL number:  0.40E+01 at (   0,   0,   0)
       Max divergence: -0.10E+05 at (   0,   0,   0)
       Min divergence:  0.10E+05 at (   4,  16,  50)
       Max VN number:   0.00E+00 at (  17,  25,  63)
       No. of Lagrangian Particles:           832
       Radiation Loss to Boundaries:   -604562.167 kW
       Mesh   12
       Max CFL number:  0.46E+01 at (   0,   0,   0)
       Max divergence: -0.10E+05 at (   0,   0,   0)
       Min divergence:  0.10E+05 at (   0,   0,   0)
       Max VN number:   0.00E+00 at (   0,   0,   0)
       Mesh   13
       Max CFL number:  0.32E+01 at (   0,   0,   0)
       Max divergence: -0.10E+05 at (   0,   0,   0)
       Min divergence:  0.10E+05 at (  24,   9,  22)
       Max VN number:   0.00E+00 at (  25,  25,  63)
       No. of Lagrangian Particles:          1241
       Radiation Loss to Boundaries:  -6392603.339 kW
       Mesh   14
       Max CFL number:  0.34E+01 at (   0,   0,   0)
       Max divergence: -0.10E+05 at (   0,   0,   0)
       Min divergence:  0.10E+05 at (  13,  10,  34)
       Max VN number:   0.00E+00 at (  25,  25,  63)
       No. of Lagrangian Particles:          1284
       Radiation Loss to Boundaries:  -3430203.931 kW
       Mesh   15
       Max CFL number:  0.39E+01 at (   0,   0,   0)
       Max divergence: -0.10E+05 at (   0,   0,   0)
       Min divergence:  0.10E+05 at (   7,  16,  54)
       Max VN number:   0.00E+00 at (  15,  25,  63)
       No. of Lagrangian Particles:           888
       Radiation Loss to Boundaries:   -758982.962 kW
       Mesh   16
       Max CFL number:  0.46E+01 at (   0,   0,   0)
       Max divergence: -0.10E+05 at (   0,   0,   0)
       Min divergence:  0.10E+05 at (   0,   0,   0)
       Max VN number:   0.00E+00 at (   0,   0,   0)
       Mesh   17
       Max CFL number:  0.37E+01 at (   0,   0,   0)
       Max divergence: -0.10E+05 at (   0,   0,   0)
       Min divergence:  0.10E+05 at (  25,  25,   1)
       Max VN number:   0.00E+00 at (  25,  25,  63)
       Radiation Loss to Boundaries:  -7777720.620 kW
       Mesh   18
       Max CFL number:  0.37E+01 at (   0,   0,   0)
       Max divergence: -0.10E+05 at (   0,   0,   0)
       Min divergence:  0.10E+05 at (  17,   3,   1)
       Max VN number:   0.00E+00 at (  25,  25,  63)
       No. of Lagrangian Particles:           247
       Radiation Loss to Boundaries:  -7045899.430 kW
       Mesh   19
       Max CFL number:  0.32E+01 at (   0,   0,   0)
       Max divergence: -0.10E+05 at (   0,   0,   0)
       Min divergence:  0.10E+05 at (  25,   5,  34)
       Max VN number:   0.00E+00 at (  25,  25,  63)
       No. of Lagrangian Particles:          1592
       Radiation Loss to Boundaries:  -5471414.043 kW
       Mesh   20
       Max CFL number:  0.36E+01 at (   0,   0,   0)
       Max divergence: -0.10E+05 at (   0,   0,   0)
       Min divergence:  0.10E+05 at (   2,  14,  34)
       Max VN number:   0.00E+00 at (  25,  25,  63)
       No. of Lagrangian Particles:          1568
       Radiation Loss to Boundaries:  -2664268.507 kW
       Mesh   21
       Max CFL number:  0.37E+01 at (   0,   0,   0)
       Max divergence: -0.10E+05 at (   0,   0,   0)
       Min divergence:  0.10E+05 at (  25,   1,   1)
       Max VN number:   0.00E+00 at (  25,  25,  63)
       Radiation Loss to Boundaries:  -6824743.361 kW
       Mesh   22
       Max CFL number:  0.40E+01 at (   0,   0,   0)
       Max divergence: -0.10E+05 at (   0,   0,   0)
       Min divergence:  0.10E+05 at (  25,   1,   1)
       Max VN number:   0.00E+00 at (  25,  25,  63)
       Radiation Loss to Boundaries:  -5898201.875 kW
       Mesh   23
       Max CFL number:  0.34E+01 at (   0,   0,   0)
       Max divergence: -0.10E+05 at (   0,   0,   0)
       Min divergence:  0.10E+05 at (  19,  21,  10)
       Max VN number:   0.00E+00 at (  25,  25,  63)
       No. of Lagrangian Particles:          1096
       Radiation Loss to Boundaries:  -5733757.470 kW
       Mesh   24
       Max CFL number:  0.33E+01 at (   0,   0,   0)
       Max divergence: -0.10E+05 at (   0,   0,   0)
       Min divergence:  0.10E+05 at (   6,  21,  23)
       Max VN number:   0.00E+00 at (  25,  25,  63)
       No. of Lagrangian Particles:          1518
       Radiation Loss to Boundaries:  -3776599.016 kW
       Mesh   25
       Max CFL number:  0.38E+01 at (   0,   0,   0)
       Max divergence: -0.10E+05 at (   0,   0,   0)
       Min divergence:  0.10E+05 at (  25,   1,   1)
       Max VN number:   0.00E+00 at (  25,  25,  63)
       Radiation Loss to Boundaries:  -6783697.335 kW
       Mesh   26
       Max CFL number:  0.40E+01 at (   0,   0,   0)
       Max divergence: -0.10E+05 at (   0,   0,   0)
       Min divergence:  0.10E+05 at (  25,   1,   1)
       Max VN number:   0.00E+00 at (  25,  25,  63)
       Radiation Loss to Boundaries:  -5811615.576 kW
       Mesh   27
       Max CFL number:  0.35E+01 at (   0,   0,   0)
       Max divergence: -0.10E+05 at (   0,   0,   0)
       Min divergence:  0.10E+05 at (  25,  10,  17)
       Max VN number:   0.00E+00 at (  25,  25,  63)
       No. of Lagrangian Particles:           673
       Radiation Loss to Boundaries:  -5998023.879 kW
       Mesh   28
       Max CFL number:  0.32E+01 at (   0,   0,   0)
       Max divergence: -0.10E+05 at (   0,   0,   0)
       Min divergence:  0.10E+05 at (  24,   1,  46)
       Max VN number:   0.00E+00 at (  25,  25,  63)
       No. of Lagrangian Particles:          1591
       Radiation Loss to Boundaries:  -4103769.402 kW
       Mesh   29
       Max CFL number:  0.36E+01 at (   0,   0,   0)
       Max divergence: -0.10E+05 at (   0,   0,   0)
       Min divergence:  0.10E+05 at (  25,   1,   1)
       Max VN number:   0.00E+00 at (  25,  25,  63)
       Radiation Loss to Boundaries:  -7697066.668 kW
       Mesh   30
       Max CFL number:  0.38E+01 at (   0,   0,   0)
       Max divergence: -0.10E+05 at (   0,   0,   0)
       Min divergence:  0.10E+05 at (  25,   1,   1)
       Max VN number:   0.00E+00 at (  25,  25,  63)
       Radiation Loss to Boundaries:  -6890081.799 kW
       Mesh   31
       Max CFL number:  0.33E+01 at (   0,   0,   0)
       Max divergence: -0.10E+05 at (   0,   0,   0)
       Min divergence:  0.10E+05 at (  25,   4,   8)
       Max VN number:   0.00E+00 at (  25,  25,  63)
       No. of Lagrangian Particles:           500
       Radiation Loss to Boundaries:  -7010172.840 kW
       Mesh   32
       Max CFL number:  0.33E+01 at (   0,   0,   0)
       Max divergence: -0.10E+05 at (   0,   0,   0)
       Min divergence:  0.10E+05 at (   1,   4,   9)
       Max VN number:   0.00E+00 at (  25,  25,  63)
       No. of Lagrangian Particles:          1359
       Radiation Loss to Boundaries:  -5752761.278 kW

       Time Step     100   June 22, 2020  11:42:39
       Step Size:    0.100E+00 s, Total Time:      10.00 s
       Pressure Iterations:     10
       Maximum Velocity Error:  0.00E+00 on Mesh   1 at (  15   3  35)
       Maximum Pressure Error:       NaN on Mesh   1 at (   1   1   1)
       ---------------------------------------------------------------
       Mesh    1
       Max CFL number:  0.38E+01 at (   0,   0,   0)
       Max divergence: -0.10E+05 at (   0,   0,   0)
       Min divergence:  0.10E+05 at (  25,   7,  47)
       Max VN number:   0.00E+00 at (  25,  25,  63)
       No. of Lagrangian Particles:          1386
       Radiation Loss to Boundaries:  -4005183.458 kW
       Mesh    2
       Max CFL number:  0.41E+01 at (   0,   0,   0)
       Max divergence: -0.10E+05 at (   0,   0,   0)
       Min divergence:  0.10E+05 at (   1,   7,  48)
       Max VN number:   0.00E+00 at (  25,  25,  63)
       No. of Lagrangian Particles:          1254
       Radiation Loss to Boundaries:  -1105823.126 kW
       Mesh    3
       Max CFL number:  0.51E+01 at (   0,   0,   0)
       Max divergence: -0.10E+05 at (   0,   0,   0)
       Min divergence:  0.10E+05 at (   1,  25,  63)
       Max VN number:   0.00E+00 at (   1,  25,  63)
       No. of Lagrangian Particles:             5
       Radiation Loss to Boundaries:      -531.380 kW
       Mesh    4
       Max CFL number:  0.50E+01 at (   0,   0,   0)
       Max divergence: -0.10E+05 at (   0,   0,   0)
       Min divergence:  0.10E+05 at (   0,   0,   0)
       Max VN number:   0.00E+00 at (   0,   0,   0)
       Mesh    5
       Max CFL number:  0.34E+01 at (   0,   0,   0)
       Max divergence: -0.10E+05 at (   0,   0,   0)
       Min divergence:  0.10E+05 at (  10,  23,  12)
       Max VN number:   0.00E+00 at (  25,  25,  63)
       No. of Lagrangian Particles:          1484
       Radiation Loss to Boundaries:  -5178138.938 kW
       Mesh    6
       Max CFL number:  0.37E+01 at (   0,   0,   0)
       Max divergence: -0.10E+05 at (   0,   0,   0)
       Min divergence:  0.10E+05 at (  23,  24,  50)
       Max VN number:   0.00E+00 at (  25,  25,  63)
       No. of Lagrangian Particles:          1552
       Radiation Loss to Boundaries:  -2326977.330 kW
       Mesh    7
       Max CFL number:  0.47E+01 at (   0,   0,   0)
       Max divergence: -0.10E+05 at (   0,   0,   0)
       Min divergence:  0.10E+05 at (   1,   3,  63)
       Max VN number:   0.00E+00 at (  11,  25,  63)
       No. of Lagrangian Particles:           451
       Radiation Loss to Boundaries:   -177266.452 kW
       Mesh    8
       Max CFL number:  0.50E+01 at (   0,   0,   0)
       Max divergence: -0.10E+05 at (   0,   0,   0)
       Min divergence:  0.10E+05 at (   0,   0,   0)
       Max VN number:   0.00E+00 at (   0,   0,   0)
       Mesh    9
       Max CFL number:  0.37E+01 at (   0,   0,   0)
       Max divergence: -0.10E+05 at (   0,   0,   0)
       Min divergence:  0.10E+05 at (  25,  19,  25)
       Max VN number:   0.00E+00 at (  25,  25,  63)
       No. of Lagrangian Particles:          1239
       Radiation Loss to Boundaries:  -5722922.238 kW
       Mesh   10
       Max CFL number:  0.37E+01 at (   0,   0,   0)
       Max divergence: -0.10E+05 at (   0,   0,   0)
       Min divergence:  0.10E+05 at (  22,   1,  48)
       Max VN number:   0.00E+00 at (  25,  25,  63)
       No. of Lagrangian Particles:          1297
       Radiation Loss to Boundaries:  -2818030.913 kW
       Mesh   11
       Max CFL number:  0.45E+01 at (   0,   0,   0)
       Max divergence: -0.10E+05 at (   0,   0,   0)
       Min divergence:  0.10E+05 at (   4,  16,  50)
       Max VN number:   0.00E+00 at (  17,  25,  63)
       No. of Lagrangian Particles:           832
       Radiation Loss to Boundaries:   -587785.115 kW
       Mesh   12
       Max CFL number:  0.51E+01 at (   0,   0,   0)
       Max divergence: -0.10E+05 at (   0,   0,   0)
       Min divergence:  0.10E+05 at (   0,   0,   0)
       Max VN number:   0.00E+00 at (   0,   0,   0)
       Mesh   13
       Max CFL number:  0.36E+01 at (   0,   0,   0)
       Max divergence: -0.10E+05 at (   0,   0,   0)
       Min divergence:  0.10E+05 at (  24,   9,  22)
       Max VN number:   0.00E+00 at (  25,  25,  63)
       No. of Lagrangian Particles:          1241
       Radiation Loss to Boundaries:  -6324033.611 kW
       Mesh   14
       Max CFL number:  0.38E+01 at (   0,   0,   0)
       Max divergence: -0.10E+05 at (   0,   0,   0)
       Min divergence:  0.10E+05 at (  13,  10,  34)
       Max VN number:   0.00E+00 at (  25,  25,  63)
       No. of Lagrangian Particles:          1284
       Radiation Loss to Boundaries:  -3380439.855 kW
       Mesh   15
       Max CFL number:  0.44E+01 at (   0,   0,   0)
       Max divergence: -0.10E+05 at (   0,   0,   0)
       Min divergence:  0.10E+05 at (   7,  16,  54)
       Max VN number:   0.00E+00 at (  15,  25,  63)
       No. of Lagrangian Particles:           888
       Radiation Loss to Boundaries:   -741958.239 kW
       Mesh   16
       Max CFL number:  0.51E+01 at (   0,   0,   0)
       Max divergence: -0.10E+05 at (   0,   0,   0)
       Min divergence:  0.10E+05 at (   0,   0,   0)
       Max VN number:   0.00E+00 at (   0,   0,   0)
       Mesh   17
       Max CFL number:  0.42E+01 at (   0,   0,   0)
       Max divergence: -0.10E+05 at (   0,   0,   0)
       Min divergence:  0.10E+05 at (  25,  25,   1)
       Max VN number:   0.00E+00 at (  25,  25,  63)
       Radiation Loss to Boundaries:  -7739550.024 kW
       Mesh   18
       Max CFL number:  0.42E+01 at (   0,   0,   0)
       Max divergence: -0.10E+05 at (   0,   0,   0)
       Min divergence:  0.10E+05 at (  17,   3,   1)
       Max VN number:   0.00E+00 at (  25,  25,  63)
       No. of Lagrangian Particles:           247
       Radiation Loss to Boundaries:  -6987589.568 kW
       Mesh   19
       Max CFL number:  0.35E+01 at (   0,   0,   0)
       Max divergence: -0.10E+05 at (   0,   0,   0)
       Min divergence:  0.10E+05 at (  25,   5,  34)
       Max VN number:   0.00E+00 at (  25,  25,  63)
       No. of Lagrangian Particles:          1592
       Radiation Loss to Boundaries:  -5399325.852 kW
       Mesh   20
       Max CFL number:  0.39E+01 at (   0,   0,   0)
       Max divergence: -0.10E+05 at (   0,   0,   0)
       Min divergence:  0.10E+05 at (   2,  14,  34)
       Max VN number:   0.00E+00 at (  25,  25,  63)
       No. of Lagrangian Particles:          1568
       Radiation Loss to Boundaries:  -2631270.980 kW
       Mesh   21
       Max CFL number:  0.42E+01 at (   0,   0,   0)
       Max divergence: -0.10E+05 at (   0,   0,   0)
       Min divergence:  0.10E+05 at (  25,   1,   1)
       Max VN number:   0.00E+00 at (  25,  25,  63)
       Radiation Loss to Boundaries:  -6791022.004 kW
       Mesh   22
       Max CFL number:  0.45E+01 at (   0,   0,   0)
       Max divergence: -0.10E+05 at (   0,   0,   0)
       Min divergence:  0.10E+05 at (  25,   1,   1)
       Max VN number:   0.00E+00 at (  25,  25,  63)
       Radiation Loss to Boundaries:  -5851995.472 kW
       Mesh   23
       Max CFL number:  0.39E+01 at (   0,   0,   0)
       Max divergence: -0.10E+05 at (   0,   0,   0)
       Min divergence:  0.10E+05 at (  19,  21,  10)
       Max VN number:   0.00E+00 at (  25,  25,  63)
       No. of Lagrangian Particles:          1096
       Radiation Loss to Boundaries:  -5652524.419 kW
       Mesh   24
       Max CFL number:  0.37E+01 at (   0,   0,   0)
       Max divergence: -0.10E+05 at (   0,   0,   0)
       Min divergence:  0.10E+05 at (   6,  21,  23)
       Max VN number:   0.00E+00 at (  25,  25,  63)
       No. of Lagrangian Particles:          1518
       Radiation Loss to Boundaries:  -3728857.693 kW
       Mesh   25
       Max CFL number:  0.42E+01 at (   0,   0,   0)
       Max divergence: -0.10E+05 at (   0,   0,   0)
       Min divergence:  0.10E+05 at (  25,   1,   1)
       Max VN number:   0.00E+00 at (  25,  25,  63)
       Radiation Loss to Boundaries:  -6761012.127 kW
       Mesh   26
       Max CFL number:  0.44E+01 at (   0,   0,   0)
       Max divergence: -0.10E+05 at (   0,   0,   0)
       Min divergence:  0.10E+05 at (  25,   1,   1)
       Max VN number:   0.00E+00 at (  25,  25,  63)
       Radiation Loss to Boundaries:  -5771986.040 kW
       Mesh   27
       Max CFL number:  0.39E+01 at (   0,   0,   0)
       Max divergence: -0.10E+05 at (   0,   0,   0)
       Min divergence:  0.10E+05 at (  25,  10,  17)
       Max VN number:   0.00E+00 at (  25,  25,  63)
       No. of Lagrangian Particles:           673
       Radiation Loss to Boundaries:  -5918806.674 kW
       Mesh   28
       Max CFL number:  0.36E+01 at (   0,   0,   0)
       Max divergence: -0.10E+05 at (   0,   0,   0)
       Min divergence:  0.10E+05 at (  24,   1,  46)
       Max VN number:   0.00E+00 at (  25,  25,  63)
       No. of Lagrangian Particles:          1591
       Radiation Loss to Boundaries:  -4049906.254 kW
       Mesh   29
       Max CFL number:  0.41E+01 at (   0,   0,   0)
       Max divergence: -0.10E+05 at (   0,   0,   0)
       Min divergence:  0.10E+05 at (  25,   1,   1)
       Max VN number:   0.00E+00 at (  25,  25,  63)
       Radiation Loss to Boundaries:  -7664430.516 kW
       Mesh   30
       Max CFL number:  0.43E+01 at (   0,   0,   0)
       Max divergence: -0.10E+05 at (   0,   0,   0)
       Min divergence:  0.10E+05 at (  25,   1,   1)
       Max VN number:   0.00E+00 at (  25,  25,  63)
       Radiation Loss to Boundaries:  -6853429.026 kW
       Mesh   31
       Max CFL number:  0.37E+01 at (   0,   0,   0)
       Max divergence: -0.10E+05 at (   0,   0,   0)
       Min divergence:  0.10E+05 at (  25,   4,   8)
       Max VN number:   0.00E+00 at (  25,  25,  63)
       No. of Lagrangian Particles:           500
       Radiation Loss to Boundaries:  -6940448.281 kW
       Mesh   32
       Max CFL number:  0.36E+01 at (   0,   0,   0)
       Max divergence: -0.10E+05 at (   0,   0,   0)
       Min divergence:  0.10E+05 at (   1,   4,   9)
       Max VN number:   0.00E+00 at (  25,  25,  63)
       No. of Lagrangian Particles:          1359
       Radiation Loss to Boundaries:  -5698831.850 kW



 Time Stepping Wall Clock Time (s):       93.691
 Total Elapsed Wall Clock Time (s):      118.410

STOP: FDS completed successfully (CHID: Chimney_tops_1m)
