&HEAD CHID='Region8', TITLE='Simulation of Chimney Tops fire' /

&MESH IJK=50,50,30, XB=400,500.0,480,580.0,380,440.0, MULT_ID='mesh' / 
&MULT ID='mesh', DX=100.0, DY=100.0, DZ=60.0, I_LOWER=0, I_UPPER=1, J_LOWER=0, J_UPPER=1, K_UPPER=3 /  

&MISC TMPA=30., TERRAIN_CASE=.TRUE., TERRAIN_IMAGE='Region8.png', VERBOSE=.TRUE., RESTART=.FALSE., PROJECTION=.TRUE.  /
&TIME T_BEGIN = 360.0, T_END = 420.0 / 

&DUMP NFRAMES=120, DT_PART=100., CFL_FILE=.TRUE., DT_PL3D=60.0 /  
&WIND DIRECTION=135., SPEED=5., SPONGE_CELLS=0, STRATIFICATION=.FALSE. /

&SLCF XB=400,600,480,680,380,620, QUANTITY='HRRPUV', CELL_CENTERED=.TRUE. /  

&CATF OTHER_FILES='../Region7/Region7.ini' / 


&RAMP ID='fire', T= 360, F=1. /
&RAMP ID='fire', T= 365.0, F=1. /
&RAMP ID='fire', T= 370.0, F=0. /
&VENT MB='XMIN', SURF_ID='OPEN' /  
&VENT MB='XMAX', SURF_ID='OPEN' /  
&VENT MB='YMIN', SURF_ID='OPEN' /  
&VENT MB='YMAX', SURF_ID='OPEN' /  
&VENT MB='ZMAX', SURF_ID='OPEN' /  

&REAC FUEL='CELLULOSE', C=6, H=10, O=5, SOOT_YIELD=0.005 / 

&SPEC ID='WATER VAPOR' / 

&SURF ID                        = 'grass' 
      MATL_ID(1,1:2)            = 'GENERIC VEGETATION','MOISTURE'
      MATL_MASS_FRACTION(1,1:2) = 0.937,0.063
      THICKNESS                 = 0.0002
      LENGTH                    = 0.21
      HEAT_TRANSFER_COEFFICIENT = 30.
      GEOMETRY                  = 'CYLINDRICAL' /

&SURF ID                        = 'needles' 
      MATL_ID(1,1:2)            = 'GENERIC VEGETATION','MOISTURE'
      MATL_MASS_FRACTION(1,1:2) = 0.95,0.05
      THICKNESS                 = 0.02
      LENGTH                    = 0.21
      HEAT_TRANSFER_COEFFICIENT = 30.
      GEOMETRY                  = 'CYLINDRICAL' /

&MATL ID = 'GENERIC VEGETATION' 
      DENSITY = 500.
      CONDUCTIVITY = 0.1
      SPECIFIC_HEAT= 1.5
      REFERENCE_TEMPERATURE = 200
      PYROLYSIS_RANGE = 30.
      NU_MATL = 0.2
      NU_SPEC = 0.8 
      SPEC_ID = 'CELLULOSE'
      HEAT_OF_COMBUSTION = 15600.
      HEAT_OF_REACTION = 418.
      MATL_ID  = 'CHAR' /

&MATL ID = 'MOISTURE' 
      DENSITY = 1000.
      CONDUCTIVITY = 0.1
      SPECIFIC_HEAT= 4.184
      REFERENCE_TEMPERATURE = 100.
      PYROLYSIS_RANGE = 10.
      NU_SPEC = 1.0 
      SPEC_ID = 'WATER VAPOR'
      HEAT_OF_REACTION = 2500./

&MATL ID = 'CHAR'
      DENSITY  = 100.
      CONDUCTIVITY = 0.1 
      SPECIFIC_HEAT = 1.0 / 

&MATL ID='DIRT'
      CONDUCTIVITY = 0.25
      SPECIFIC_HEAT = 2.
     DENSITY = 1300. /

&PART ID='foliage', DRAG_COEFFICIENT=1.0, SURF_ID='needles', SAMPLING_FACTOR=5,
      QUANTITIES='PARTICLE TEMPERATURE','PARTICLE MASS','PARTICLE DIAMETER', STATIC=.TRUE., COLOR='GREEN' / 

&PART ID='grass', DRAG_COEFFICIENT=1.0, SURF_ID='grass', SAMPLING_FACTOR=958,
      QUANTITIES='PARTICLE TEMPERATURE','PARTICLE MASS','PARTICLE DIAMETER', STATIC=.TRUE., COLOR='BROWN' /

&SURF ID = 'surf1', RGB = 122,117,48, MATL_ID='DIRT', THICKNESS=0.2, PART_ID='grass', PARTICLE_SURFACE_DENSITY=1.0 / 
&SURF ID = 'surf2', RGB = 0,100,0, MATL_ID='DIRT', THICKNESS=0.2 / 

&OBST XB=400.0,402.0,480.0,482.0,380,506.64407300000005 SURF_ID='surf1' /
&OBST XB=400.0,402.0,481.0,483.0,380,506.64407300000005 SURF_ID='surf1' /
&OBST XB=400.0,402.0,482.0,484.0,380,507.36477699999995 SURF_ID='surf1' /
&OBST XB=400.0,402.0,483.0,485.0,380,507.36477699999995 SURF_ID='surf1' /
&OBST XB=400.0,402.0,484.0,486.0,380,508.01062 SURF_ID='surf1' /
&OBST XB=400.0,402.0,485.0,487.0,380,508.01062 SURF_ID='surf1' /
&OBST XB=400.0,402.0,486.0,488.0,380,508.681763 SURF_ID='surf1' /
&OBST XB=400.0,402.0,487.0,489.0,380,508.681763 SURF_ID='surf1' /
&OBST XB=400.0,402.0,488.0,490.0,380,509.28576699999996 SURF_ID='surf1' /
&OBST XB=400.0,402.0,489.0,491.0,380,509.28576699999996 SURF_ID='surf1' /
&OBST XB=400.0,402.0,490.0,492.0,380,509.889709 SURF_ID='surf1' /
&OBST XB=400.0,402.0,491.0,493.0,380,509.889709 SURF_ID='surf1' /
&OBST XB=400.0,402.0,492.0,494.0,380,510.545898 SURF_ID='surf1' /
&OBST XB=400.0,402.0,493.0,495.0,380,510.545898 SURF_ID='surf1' /
&OBST XB=400.0,402.0,494.0,496.0,380,511.12524400000007 SURF_ID='surf1' /
&OBST XB=400.0,402.0,495.0,497.0,380,511.12524400000007 SURF_ID='surf1' /
&OBST XB=400.0,402.0,496.0,498.0,380,511.59082 SURF_ID='surf1' /
&OBST XB=400.0,402.0,497.0,499.0,380,511.59082 SURF_ID='surf1' /
&OBST XB=400.0,402.0,498.0,500.0,380,512.056458 SURF_ID='surf1' /
&OBST XB=400.0,402.0,499.0,501.0,380,512.056458 SURF_ID='surf1' /
! ... 40381 like lines cut
