&HEAD CHID='Region3_cat', TITLE='Concatenated : Simulation of Chimney Tops fire', FYI='' /

&MESH IJK=25,25,15, XB=332,432.0,340,440.0,380,440.0, MULT_ID='mesh' /
&MULT ID='mesh', DX=100.0, DY=100.0, DZ=60.0, I_LOWER=0, I_UPPER=1, J_LOWER=0, J_UPPER=1, K_UPPER=3 /

&MISC TMPA=30., TERRAIN_CASE=.TRUE., TERRAIN_IMAGE='Region3.png', VERBOSE=.TRUE., RESTART=.FALSE., PROJECTION=.TRUE.  /
&TIME T_BEGIN = 120.0, T_END = 180.0 /

&DUMP NFRAMES=120, DT_PART=100., CFL_FILE=.TRUE., DT_PL3D=60.0 /
&WIND DIRECTION=135., SPEED=5., SPONGE_CELLS=0, STRATIFICATION=.FALSE. /

&SLCF XB=332,532,340,540,380,620, QUANTITY='HRRPUV', CELL_CENTERED=.TRUE. /



&RAMP ID='fire', T= 120, F=1. /
&RAMP ID='fire', T= 125.0, F=1. /
&RAMP ID='fire', T= 130.0, F=0. /
&VENT MB='XMIN', SURF_ID='OPEN' /
&VENT MB='XMAX', SURF_ID='OPEN' /
&VENT MB='YMIN', SURF_ID='OPEN' /
&VENT MB='YMAX', SURF_ID='OPEN' /
&VENT MB='ZMAX', SURF_ID='OPEN' /

&REAC FUEL='CELLULOSE', C=6, H=10, O=5, SOOT_YIELD=0.005 /

&SPEC ID='WATER VAPOR' /

&SURF ID                        = 'grass'
      MATL_ID(1,1:2)            = 'GENERIC VEGETATION','MOISTURE'
      MATL_MASS_FRACTION(1,1:2) = 0.937,0.063
      THICKNESS                 = 0.0002
      LENGTH                    = 0.21
      HEAT_TRANSFER_COEFFICIENT = 30.
      GEOMETRY                  = 'CYLINDRICAL' /

&SURF ID                        = 'needles'
      MATL_ID(1,1:2)            = 'GENERIC VEGETATION','MOISTURE'
      MATL_MASS_FRACTION(1,1:2) = 0.95,0.05
      THICKNESS                 = 0.02
      LENGTH                    = 0.21
      HEAT_TRANSFER_COEFFICIENT = 30.
      GEOMETRY                  = 'CYLINDRICAL' /

&MATL ID = 'GENERIC VEGETATION'
      DENSITY = 500.
      CONDUCTIVITY = 0.1
      SPECIFIC_HEAT= 1.5
      REFERENCE_TEMPERATURE = 200
      PYROLYSIS_RANGE = 30.
      NU_MATL = 0.2
      NU_SPEC = 0.8
      SPEC_ID = 'CELLULOSE'
      HEAT_OF_COMBUSTION = 15600.
      HEAT_OF_REACTION = 418.
      MATL_ID  = 'CHAR' /

&MATL ID = 'MOISTURE'
      DENSITY = 1000.
      CONDUCTIVITY = 0.1
      SPECIFIC_HEAT= 4.184
      REFERENCE_TEMPERATURE = 100.
      PYROLYSIS_RANGE = 10.
      NU_SPEC = 1.0
      SPEC_ID = 'WATER VAPOR'
      HEAT_OF_REACTION = 2500./

&MATL ID = 'CHAR'
      DENSITY  = 100.
      CONDUCTIVITY = 0.1
      SPECIFIC_HEAT = 1.0 /

&MATL ID='DIRT'
      CONDUCTIVITY = 0.25
      SPECIFIC_HEAT = 2.
     DENSITY = 1300. /

&PART ID='foliage', DRAG_COEFFICIENT=1.0, SURF_ID='needles', SAMPLING_FACTOR=5,
      QUANTITIES='PARTICLE TEMPERATURE','PARTICLE MASS','PARTICLE DIAMETER', STATIC=.TRUE., COLOR='GREEN' /

&PART ID='grass', DRAG_COEFFICIENT=1.0, SURF_ID='grass', SAMPLING_FACTOR=958,
      QUANTITIES='PARTICLE TEMPERATURE','PARTICLE MASS','PARTICLE DIAMETER', STATIC=.TRUE., COLOR='BROWN' /

&SURF ID = 'surf1', RGB = 122,117,48, MATL_ID='DIRT', THICKNESS=0.2, PART_ID='grass', PARTICLE_SURFACE_DENSITY=1.0 /
&SURF ID = 'surf2', RGB = 0,100,0, MATL_ID='DIRT', THICKNESS=0.2 /

&OBST XB=332.0,336.0,340.0,344.0,380,479.40554800000007 SURF_ID='surf1' /
&OBST XB=332.0,336.0,341.0,345.0,380,479.40554800000007 SURF_ID='surf1' /
&OBST XB=332.0,336.0,342.0,346.0,380,479.93109100000004 SURF_ID='surf1' /
&OBST XB=332.0,336.0,343.0,347.0,380,479.93109100000004 SURF_ID='surf1' /
&OBST XB=332.0,336.0,344.0,348.0,380,480.45666500000004 SURF_ID='surf1' /
&OBST XB=332.0,336.0,345.0,349.0,380,480.45666500000004 SURF_ID='surf1' /
&OBST XB=332.0,336.0,346.0,350.0,380,481.04040499999996 SURF_ID='surf1' /
&OBST XB=332.0,336.0,347.0,351.0,380,481.04040499999996 SURF_ID='surf1' /
&OBST XB=332.0,336.0,348.0,352.0,380,481.60424800000004 SURF_ID='surf1' /
&OBST XB=332.0,336.0,349.0,353.0,380,481.60424800000004 SURF_ID='surf1' /
&OBST XB=332.0,336.0,350.0,354.0,380,482.42117300000007 SURF_ID='surf1' /
&OBST XB=332.0,336.0,351.0,355.0,380,482.42117300000007 SURF_ID='surf1' /
&OBST XB=332.0,336.0,352.0,356.0,380,483.510681 SURF_ID='surf1' /
&OBST XB=332.0,336.0,353.0,357.0,380,483.510681 SURF_ID='surf1' /
&OBST XB=332.0,336.0,354.0,358.0,380,484.60022000000004 SURF_ID='surf1' /
&OBST XB=332.0,336.0,355.0,359.0,380,484.60022000000004 SURF_ID='surf1' /
&OBST XB=332.0,336.0,356.0,360.0,380,485.58062699999994 SURF_ID='surf1' /
&OBST XB=332.0,336.0,357.0,361.0,380,485.58062699999994 SURF_ID='surf1' /
&OBST XB=332.0,336.0,358.0,362.0,380,486.575378 SURF_ID='surf1' /
&OBST XB=332.0,336.0,359.0,363.0,380,486.575378 SURF_ID='surf1' /
! ... 40381 like lines cut
# Start of file ../Region2/Region2.ini :
&INIT XB=517.46,521.46,344.0,348.0,460.0,464.0, HRRPUV=2.1246e-06, RAMP_Q='fire' /
&INIT XB=517.46,521.46,348.0,352.0,460.0,464.0, HRRPUV=1.3189e-05, RAMP_Q='fire' /
&INIT XB=521.35,525.35,348.0,352.0,460.0,464.0, HRRPUV=7.0844e-06, RAMP_Q='fire' /
&INIT XB=521.35,525.35,352.0,356.0,460.0,464.0, HRRPUV=3.8792e-05, RAMP_Q='fire' /
&INIT XB=525.23,529.23,352.0,356.0,460.0,464.0, HRRPUV=5.5936e-06, RAMP_Q='fire' /
&INIT XB=521.35,525.35,356.0,360.0,460.0,464.0, HRRPUV=0.00017042, RAMP_Q='fire' /
&INIT XB=525.23,529.23,356.0,360.0,460.0,464.0, HRRPUV=3.2415999999999996e-05, RAMP_Q='fire' /
&INIT XB=521.35,525.35,360.0,364.0,460.0,464.0, HRRPUV=0.00048083, RAMP_Q='fire' /
&INIT XB=525.23,529.23,360.0,364.0,460.0,464.0, HRRPUV=4.3593e-05, RAMP_Q='fire' /
&INIT XB=521.35,525.35,364.0,368.0,460.0,464.0, HRRPUV=0.00011261, RAMP_Q='fire' /
&INIT XB=525.23,529.23,364.0,368.0,460.0,464.0, HRRPUV=1.318e-05, RAMP_Q='fire' /
&INIT XB=521.35,525.35,368.0,372.0,460.0,464.0, HRRPUV=5.075600000000001e-05, RAMP_Q='fire' /
&INIT XB=525.23,529.23,368.0,372.0,460.0,464.0, HRRPUV=1.9425e-05, RAMP_Q='fire' /
&INIT XB=525.23,529.23,372.0,376.0,460.0,464.0, HRRPUV=2.9001e-06, RAMP_Q='fire' /
&INIT XB=513.58,517.58,348.0,352.0,464.0,468.0, HRRPUV=3.4795e-06, RAMP_Q='fire' /
&INIT XB=517.46,521.46,348.0,352.0,464.0,468.0, HRRPUV=4.2503e-06, RAMP_Q='fire' /
&INIT XB=521.35,525.35,348.0,352.0,464.0,468.0, HRRPUV=2.5275999999999997e-06, RAMP_Q='fire' /
&INIT XB=509.69000000000005,513.69,352.0,356.0,464.0,468.0, HRRPUV=5.635599999999999e-06, RAMP_Q='fire' /
&INIT XB=513.58,517.58,352.0,356.0,464.0,468.0, HRRPUV=1.6011e-05, RAMP_Q='fire' /
&INIT XB=517.46,521.46,352.0,356.0,464.0,468.0, HRRPUV=1.6288e-05, RAMP_Q='fire' /
! ... 1486 like lines cut

&TAIL /
