&HEAD CHID='Region2_cat', TITLE='Concatenated : Simulation of Chimney Tops fire', FYI='' /

&MESH IJK=25,25,15, XB=450,550.0,270,370.0,380,440.0, MULT_ID='mesh' /
&MULT ID='mesh', DX=100.0, DY=100.0, DZ=60.0, I_LOWER=0, I_UPPER=1, J_LOWER=0, J_UPPER=1, K_UPPER=3 /

&MISC TMPA=30., TERRAIN_CASE=.TRUE., TERRAIN_IMAGE='Region2.png', VERBOSE=.TRUE., RESTART=.FALSE., PROJECTION=.TRUE.  /
&TIME T_BEGIN = 60.0, T_END = 120.0 /

&DUMP NFRAMES=120, DT_PART=100., CFL_FILE=.TRUE., DT_PL3D=60.0 /
&WIND DIRECTION=135., SPEED=5., SPONGE_CELLS=0, STRATIFICATION=.FALSE. /

&SLCF XB=450,650,270,470,380,620, QUANTITY='HRRPUV', CELL_CENTERED=.TRUE. /



&RAMP ID='fire', T= 60, F=1. /
&RAMP ID='fire', T= 65.0, F=1. /
&RAMP ID='fire', T= 70.0, F=0. /
&VENT MB='XMIN', SURF_ID='OPEN' /
&VENT MB='XMAX', SURF_ID='OPEN' /
&VENT MB='YMIN', SURF_ID='OPEN' /
&VENT MB='YMAX', SURF_ID='OPEN' /
&VENT MB='ZMAX', SURF_ID='OPEN' /

&REAC FUEL='CELLULOSE', C=6, H=10, O=5, SOOT_YIELD=0.005 /

&SPEC ID='WATER VAPOR' /

&SURF ID                        = 'grass'
      MATL_ID(1,1:2)            = 'GENERIC VEGETATION','MOISTURE'
      MATL_MASS_FRACTION(1,1:2) = 0.937,0.063
      THICKNESS                 = 0.0002
      LENGTH                    = 0.21
      HEAT_TRANSFER_COEFFICIENT = 30.
      GEOMETRY                  = 'CYLINDRICAL' /

&SURF ID                        = 'needles'
      MATL_ID(1,1:2)            = 'GENERIC VEGETATION','MOISTURE'
      MATL_MASS_FRACTION(1,1:2) = 0.95,0.05
      THICKNESS                 = 0.02
      LENGTH                    = 0.21
      HEAT_TRANSFER_COEFFICIENT = 30.
      GEOMETRY                  = 'CYLINDRICAL' /

&MATL ID = 'GENERIC VEGETATION'
      DENSITY = 500.
      CONDUCTIVITY = 0.1
      SPECIFIC_HEAT= 1.5
      REFERENCE_TEMPERATURE = 200
      PYROLYSIS_RANGE = 30.
      NU_MATL = 0.2
      NU_SPEC = 0.8
      SPEC_ID = 'CELLULOSE'
      HEAT_OF_COMBUSTION = 15600.
      HEAT_OF_REACTION = 418.
      MATL_ID  = 'CHAR' /

&MATL ID = 'MOISTURE'
      DENSITY = 1000.
      CONDUCTIVITY = 0.1
      SPECIFIC_HEAT= 4.184
      REFERENCE_TEMPERATURE = 100.
      PYROLYSIS_RANGE = 10.
      NU_SPEC = 1.0
      SPEC_ID = 'WATER VAPOR'
      HEAT_OF_REACTION = 2500./

&MATL ID = 'CHAR'
      DENSITY  = 100.
      CONDUCTIVITY = 0.1
      SPECIFIC_HEAT = 1.0 /

&MATL ID='DIRT'
      CONDUCTIVITY = 0.25
      SPECIFIC_HEAT = 2.
     DENSITY = 1300. /

&PART ID='foliage', DRAG_COEFFICIENT=1.0, SURF_ID='needles', SAMPLING_FACTOR=5,
      QUANTITIES='PARTICLE TEMPERATURE','PARTICLE MASS','PARTICLE DIAMETER', STATIC=.TRUE., COLOR='GREEN' /

&PART ID='grass', DRAG_COEFFICIENT=1.0, SURF_ID='grass', SAMPLING_FACTOR=958,
      QUANTITIES='PARTICLE TEMPERATURE','PARTICLE MASS','PARTICLE DIAMETER', STATIC=.TRUE., COLOR='BROWN' /

&SURF ID = 'surf1', RGB = 122,117,48, MATL_ID='DIRT', THICKNESS=0.2, PART_ID='grass', PARTICLE_SURFACE_DENSITY=1.0 /
&SURF ID = 'surf2', RGB = 0,100,0, MATL_ID='DIRT', THICKNESS=0.2 /

&OBST XB=450.0,454.0,270.0,274.0,380,424.482971 SURF_ID='surf1' /
&OBST XB=450.0,454.0,271.0,275.0,380,424.482971 SURF_ID='surf1' /
&OBST XB=450.0,454.0,272.0,276.0,380,425.26330599999994 SURF_ID='surf1' /
&OBST XB=450.0,454.0,273.0,277.0,380,425.26330599999994 SURF_ID='surf1' /
&OBST XB=450.0,454.0,274.0,278.0,380,426.13049299999994 SURF_ID='surf1' /
&OBST XB=450.0,454.0,275.0,279.0,380,426.13049299999994 SURF_ID='surf1' /
&OBST XB=450.0,454.0,276.0,280.0,380,426.99282800000003 SURF_ID='surf1' /
&OBST XB=450.0,454.0,277.0,281.0,380,426.99282800000003 SURF_ID='surf1' /
&OBST XB=450.0,454.0,278.0,282.0,380,427.756866 SURF_ID='surf1' /
&OBST XB=450.0,454.0,279.0,283.0,380,427.756866 SURF_ID='surf1' /
&OBST XB=450.0,454.0,280.0,284.0,380,428.51086399999997 SURF_ID='surf1' /
&OBST XB=450.0,454.0,281.0,285.0,380,428.51086399999997 SURF_ID='surf1' /
&OBST XB=450.0,454.0,282.0,286.0,380,429.348755 SURF_ID='surf1' /
&OBST XB=450.0,454.0,283.0,287.0,380,429.348755 SURF_ID='surf1' /
&OBST XB=450.0,454.0,284.0,288.0,380,430.10321 SURF_ID='surf1' /
&OBST XB=450.0,454.0,285.0,289.0,380,430.10321 SURF_ID='surf1' /
&OBST XB=450.0,454.0,286.0,290.0,380,430.861908 SURF_ID='surf1' /
&OBST XB=450.0,454.0,287.0,291.0,380,430.861908 SURF_ID='surf1' /
&OBST XB=450.0,454.0,288.0,292.0,380,431.75708 SURF_ID='surf1' /
&OBST XB=450.0,454.0,289.0,293.0,380,431.75708 SURF_ID='surf1' /
! ... 40381 like lines cut
# Start of file ../Region1/Region1.ini :
&INIT XB=552.0,556.0,292.0,296.0,420.0,424.0, HRRPUV=3.531422869087555e-06, RAMP_Q='fire' /
&INIT XB=556.0,560.0,292.0,296.0,420.0,424.0, HRRPUV=3.916276772474982e-06, RAMP_Q='fire' /
&INIT XB=560.0,564.0,292.0,296.0,420.0,424.0, HRRPUV=7.0390296670237805e-06, RAMP_Q='fire' /
&INIT XB=560.0,564.0,296.0,300.0,420.0,424.0, HRRPUV=7.511381744858484e-05, RAMP_Q='fire' /
&INIT XB=564.0,568.0,296.0,300.0,420.0,424.0, HRRPUV=4.0283676290893926e-05, RAMP_Q='fire' /
&INIT XB=568.0,572.0,296.0,300.0,420.0,424.0, HRRPUV=6.540531684990334e-06, RAMP_Q='fire' /
&INIT XB=544.0,548.0,292.0,296.0,424.0,428.0, HRRPUV=6.807858454652723e-06, RAMP_Q='fire' /
&INIT XB=548.0,552.0,292.0,296.0,424.0,428.0, HRRPUV=1.9424767307521058e-05, RAMP_Q='fire' /
&INIT XB=552.0,556.0,292.0,296.0,424.0,428.0, HRRPUV=2.8052915693106022e-05, RAMP_Q='fire' /
&INIT XB=556.0,560.0,292.0,296.0,424.0,428.0, HRRPUV=3.471451240644895e-05, RAMP_Q='fire' /
&INIT XB=560.0,564.0,292.0,296.0,424.0,428.0, HRRPUV=6.168707588645842e-06, RAMP_Q='fire' /
&INIT XB=544.0,548.0,296.0,300.0,424.0,428.0, HRRPUV=4.1206117597443615e-05, RAMP_Q='fire' /
&INIT XB=548.0,552.0,296.0,300.0,424.0,428.0, HRRPUV=6.778433526165027e-05, RAMP_Q='fire' /
&INIT XB=552.0,556.0,296.0,300.0,424.0,428.0, HRRPUV=0.0004967549217535305, RAMP_Q='fire' /
&INIT XB=556.0,560.0,296.0,300.0,424.0,428.0, HRRPUV=0.0013471612420817324, RAMP_Q='fire' /
&INIT XB=560.0,564.0,296.0,300.0,424.0,428.0, HRRPUV=0.0002204626093642466, RAMP_Q='fire' /
&INIT XB=564.0,568.0,296.0,300.0,424.0,428.0, HRRPUV=3.018255567866695e-05, RAMP_Q='fire' /
&INIT XB=568.0,572.0,296.0,300.0,424.0,428.0, HRRPUV=6.379773204718858e-06, RAMP_Q='fire' /
&INIT XB=540.0,544.0,292.0,296.0,428.0,432.0, HRRPUV=3.698998268275533e-06, RAMP_Q='fire' /
&INIT XB=544.0,548.0,292.0,296.0,428.0,432.0, HRRPUV=8.25641057935334e-06, RAMP_Q='fire' /
! ... 6045 like lines cut

&TAIL /
