&HEAD CHID='Region1', TITLE='Simulation of Chimney Tops fire' /

&MESH IJK=50,50,30, XB=500,600.0,200,300.0,380,440.0, MULT_ID='mesh' / 
&MULT ID='mesh', DX=100.0, DY=100.0, DZ=60.0, I_LOWER=0, I_UPPER=1, J_LOWER=0, J_UPPER=1, K_UPPER=3 /  

&MISC TMPA=30., TERRAIN_CASE=.TRUE., TERRAIN_IMAGE='Region1.png', VERBOSE=.TRUE., RESTART=.FALSE., PROJECTION=.TRUE.  /
&TIME T_BEGIN = 0.0, T_END = 60.0 / 

&DUMP NFRAMES=120, DT_PART=100., CFL_FILE=.TRUE., DT_PL3D=60.0, UVW_TIMER(1)=60.0 /  
&WIND DIRECTION=135., SPEED=5., SPONGE_CELLS=0, STRATIFICATION=.FALSE. /

&SLCF XB=500,700,200,400,380,620, QUANTITY='HRRPUV', CELL_CENTERED=.TRUE. /  

&RADI KAPPA0=0 / 

&SURF ID='FIRE604256', HRRPUA=3500., COLOR='ORANGE', RAMP_Q='fire' /
&SURF ID='FIRE604258', HRRPUA=3500., COLOR='ORANGE', RAMP_Q='fire' /
&SURF ID='FIRE604260', HRRPUA=3500., COLOR='ORANGE', RAMP_Q='fire' /
&SURF ID='FIRE604262', HRRPUA=3500., COLOR='ORANGE', RAMP_Q='fire' /
&SURF ID='FIRE604264', HRRPUA=3500., COLOR='ORANGE', RAMP_Q='fire' /
&SURF ID='FIRE606256', HRRPUA=3500., COLOR='ORANGE', RAMP_Q='fire' /
&SURF ID='FIRE606258', HRRPUA=3500., COLOR='ORANGE', RAMP_Q='fire' /
&SURF ID='FIRE606260', HRRPUA=3500., COLOR='ORANGE', RAMP_Q='fire' /
&SURF ID='FIRE606262', HRRPUA=3500., COLOR='ORANGE', RAMP_Q='fire' /
&SURF ID='FIRE606264', HRRPUA=3500., COLOR='ORANGE', RAMP_Q='fire' /
&SURF ID='FIRE608256', HRRPUA=3500., COLOR='ORANGE', RAMP_Q='fire' /
&SURF ID='FIRE608258', HRRPUA=3500., COLOR='ORANGE', RAMP_Q='fire' /
&SURF ID='FIRE608260', HRRPUA=3500., COLOR='ORANGE', RAMP_Q='fire' /
&SURF ID='FIRE608262', HRRPUA=3500., COLOR='ORANGE', RAMP_Q='fire' /
&SURF ID='FIRE608264', HRRPUA=3500., COLOR='ORANGE', RAMP_Q='fire' /
&SURF ID='FIRE610256', HRRPUA=3500., COLOR='ORANGE', RAMP_Q='fire' /
&SURF ID='FIRE610258', HRRPUA=3500., COLOR='ORANGE', RAMP_Q='fire' /
&SURF ID='FIRE610260', HRRPUA=3500., COLOR='ORANGE', RAMP_Q='fire' /
&SURF ID='FIRE610262', HRRPUA=3500., COLOR='ORANGE', RAMP_Q='fire' /
&SURF ID='FIRE610264', HRRPUA=3500., COLOR='ORANGE', RAMP_Q='fire' /
! ... 5 like lines cut

&RAMP ID='fire', T= 0., F=0. /
&RAMP ID='fire', T= 1., F=1. /
&RAMP ID='fire', T= 10., F=1. /
&RAMP ID='fire', T= 11., F=0. /

&VENT MB='XMIN', SURF_ID='OPEN' /  
&VENT MB='XMAX', SURF_ID='OPEN' /  
&VENT MB='YMIN', SURF_ID='OPEN' /  
&VENT MB='YMAX', SURF_ID='OPEN' /  
&VENT MB='ZMAX', SURF_ID='OPEN' /  

&REAC FUEL='CELLULOSE', C=6, H=10, O=5, SOOT_YIELD=0.005 / 

&SPEC ID='WATER VAPOR' / 

&SURF ID                        = 'grass' 
      MATL_ID(1,1:2)            = 'GENERIC VEGETATION','MOISTURE'
      MATL_MASS_FRACTION(1,1:2) = 0.937,0.063
      THICKNESS                 = 0.0002
      LENGTH                    = 0.21
      HEAT_TRANSFER_COEFFICIENT = 30.
      GEOMETRY                  = 'CYLINDRICAL' /

&SURF ID                        = 'needles' 
      MATL_ID(1,1:2)            = 'GENERIC VEGETATION','MOISTURE'
      MATL_MASS_FRACTION(1,1:2) = 0.95,0.05
      THICKNESS                 = 0.02
      LENGTH                    = 0.21
      HEAT_TRANSFER_COEFFICIENT = 30.
      GEOMETRY                  = 'CYLINDRICAL' /

&MATL ID = 'GENERIC VEGETATION' 
      DENSITY = 500.
      CONDUCTIVITY = 0.1
      SPECIFIC_HEAT= 1.5
      REFERENCE_TEMPERATURE = 200
      PYROLYSIS_RANGE = 30.
      NU_MATL = 0.2
      NU_SPEC = 0.8 
      SPEC_ID = 'CELLULOSE'
      HEAT_OF_COMBUSTION = 15600.
      HEAT_OF_REACTION = 418.
      MATL_ID  = 'CHAR' /

&MATL ID = 'MOISTURE' 
      DENSITY = 1000.
      CONDUCTIVITY = 0.1
      SPECIFIC_HEAT= 4.184
      REFERENCE_TEMPERATURE = 100.
      PYROLYSIS_RANGE = 10.
      NU_SPEC = 1.0 
      SPEC_ID = 'WATER VAPOR'
      HEAT_OF_REACTION = 2500./

&MATL ID = 'CHAR'
      DENSITY  = 100.
      CONDUCTIVITY = 0.1 
      SPECIFIC_HEAT = 1.0 / 

&MATL ID='DIRT'
      CONDUCTIVITY = 0.25
      SPECIFIC_HEAT = 2.
     DENSITY = 1300. /

&PART ID='foliage', DRAG_COEFFICIENT=1.0, SURF_ID='needles', SAMPLING_FACTOR=5,
      QUANTITIES='PARTICLE TEMPERATURE','PARTICLE MASS','PARTICLE DIAMETER', STATIC=.TRUE., COLOR='GREEN' / 

&PART ID='grass', DRAG_COEFFICIENT=1.0, SURF_ID='grass', SAMPLING_FACTOR=958,
      QUANTITIES='PARTICLE TEMPERATURE','PARTICLE MASS','PARTICLE DIAMETER', STATIC=.TRUE., COLOR='BROWN' /

&SURF ID = 'surf1', RGB = 122,117,48, MATL_ID='DIRT', THICKNESS=0.2, PART_ID='grass', PARTICLE_SURFACE_DENSITY=1.0 / 
&SURF ID = 'surf2', RGB = 0,100,0, MATL_ID='DIRT', THICKNESS=0.2 / 

&OBST XB=604.0,606.0,256.0,258.0,380,395.949097 SURF_IDS='FIRE604256','surf1' /
&OBST XB=604.0,606.0,258.0,260.0,380,396.087036 SURF_IDS='FIRE604258','surf1' /
&OBST XB=604.0,606.0,260.0,262.0,380,396.241058 SURF_IDS='FIRE604260','surf1' /
&OBST XB=604.0,606.0,262.0,264.0,380,396.395172 SURF_IDS='FIRE604262','surf1' /
&OBST XB=604.0,606.0,264.0,266.0,380,396.533875 SURF_IDS='FIRE604264','surf1' /
&OBST XB=606.0,608.0,256.0,258.0,380,395.833801 SURF_IDS='FIRE606256','surf1' /
&OBST XB=606.0,608.0,258.0,260.0,380,395.974457 SURF_IDS='FIRE606258','surf1' /
&OBST XB=606.0,608.0,260.0,262.0,380,396.13208 SURF_IDS='FIRE606260','surf1' /
&OBST XB=606.0,608.0,262.0,264.0,380,396.289795 SURF_IDS='FIRE606262','surf1' /
&OBST XB=606.0,608.0,264.0,266.0,380,396.431732 SURF_IDS='FIRE606264','surf1' /
&OBST XB=608.0,610.0,256.0,258.0,380,395.723541 SURF_IDS='FIRE608256','surf1' /
&OBST XB=608.0,610.0,258.0,260.0,380,395.86721800000004 SURF_IDS='FIRE608258','surf1' /
&OBST XB=608.0,610.0,260.0,262.0,380,396.028534 SURF_IDS='FIRE608260','surf1' /
&OBST XB=608.0,610.0,262.0,264.0,380,396.189972 SURF_IDS='FIRE608262','surf1' /
&OBST XB=608.0,610.0,264.0,266.0,380,396.335266 SURF_IDS='FIRE608264','surf1' /
&OBST XB=610.0,612.0,256.0,258.0,380,395.619263 SURF_IDS='FIRE610256','surf1' /
&OBST XB=610.0,612.0,258.0,260.0,380,395.76635699999997 SURF_IDS='FIRE610258','surf1' /
&OBST XB=610.0,612.0,260.0,262.0,380,395.931519 SURF_IDS='FIRE610260','surf1' /
&OBST XB=610.0,612.0,262.0,264.0,380,396.096802 SURF_IDS='FIRE610262','surf1' /
&OBST XB=610.0,612.0,264.0,266.0,380,396.245575 SURF_IDS='FIRE610264','surf1' /
! ... 5 like lines cut
&OBST XB=500.0,502.0,200.0,202.0,380,403.10604900000004 SURF_ID='surf1' /
&OBST XB=500.0,502.0,202.0,204.0,380,403.479736 SURF_ID='surf1' /
&OBST XB=500.0,502.0,204.0,206.0,380,403.935272 SURF_ID='surf1' /
&OBST XB=500.0,502.0,206.0,208.0,380,404.518311 SURF_ID='surf1' /
&OBST XB=500.0,502.0,208.0,210.0,380,405.121216 SURF_ID='surf1' /
&OBST XB=500.0,502.0,210.0,212.0,380,405.724182 SURF_ID='surf1' /
&OBST XB=500.0,502.0,212.0,214.0,380,406.393799 SURF_ID='surf1' /
&OBST XB=500.0,502.0,214.0,216.0,380,406.974823 SURF_ID='surf1' /
&OBST XB=500.0,502.0,216.0,218.0,380,407.207733 SURF_ID='surf1' /
&OBST XB=500.0,502.0,218.0,220.0,380,407.180542 SURF_ID='surf1' /
&OBST XB=500.0,502.0,220.0,222.0,380,407.153442 SURF_ID='surf1' /
&OBST XB=500.0,502.0,222.0,224.0,380,407.129059 SURF_ID='surf1' /
&OBST XB=500.0,502.0,224.0,226.0,380,407.105438 SURF_ID='surf1' /
&OBST XB=500.0,502.0,226.0,228.0,380,407.191559 SURF_ID='surf1' /
&OBST XB=500.0,502.0,228.0,230.0,380,407.369507 SURF_ID='surf1' /
&OBST XB=500.0,502.0,230.0,232.0,380,407.54745499999996 SURF_ID='surf1' /
&OBST XB=500.0,502.0,232.0,234.0,380,407.74517799999995 SURF_ID='surf1' /
&OBST XB=500.0,502.0,234.0,236.0,380,407.94277999999997 SURF_ID='surf1' /
&OBST XB=500.0,502.0,236.0,238.0,380,408.146637 SURF_ID='surf1' /
&OBST XB=500.0,502.0,238.0,240.0,380,408.385223 SURF_ID='surf1' /
! ... 10156 like lines cut
